1



                                 *********************************************

                                    NUMERICAL ELECTROMAGNETICS CODE (NEC-2D)

                                 *********************************************




                                     - - - - COMMENTS - - - -


                          No comments specified                                                      
                                                                                                     




                                 - - - STRUCTURE SPECIFICATION - - -

                                     COORDINATES MUST BE INPUT IN
                                     METERS OR BE SCALED TO METERS
                                     BEFORE STRUCTURE INPUT IS ENDED


  WIRE                                                                               NO. OF    FIRST  LAST     TAG
  NO.        X1         Y1         Z1          X2         Y2         Z2      RADIUS   SEG.     SEG.   SEG.     NO.
     1    0.50000    1.28000    0.82500     0.50000    1.28000    0.92900    0.00500      2        1     2       1
     2    0.50000    1.28000    0.92900     0.50000    1.28000    0.98100    0.00500      1        3     3     999
     3    0.50000    1.28000    0.98100     0.50000    1.28000    1.07500    0.00500      2        4     5       1
     4   -1.00000    0.00000    0.25000    -1.00000    0.00000    1.05000    0.00050      4        6     9       2
     5   -1.00000    0.20000    0.25000    -1.00000    0.20000    1.05000    0.00050      4       10    13       2
     6   -1.00000    0.40000    0.25000    -1.00000    0.40000    1.05000    0.00050      4       14    17       2
     7   -1.00000    0.60000    0.25000    -1.00000    0.60000    1.05000    0.00050      4       18    21       2
     8   -1.00000    0.80000    0.25000    -1.00000    0.80000    1.05000    0.00050      4       22    25       2
     9   -1.00000    1.00000    0.25000    -1.00000    1.00000    1.05000    0.00050      4       26    29       2
    10   -1.00000    1.20000    0.25000    -1.00000    1.20000    1.05000    0.00050      4       30    33       2
    11   -1.00000    1.40000    0.25000    -1.00000    1.40000    1.05000    0.00050      4       34    37       2
    12   -1.00000    1.60000    0.25000    -1.00000    1.60000    1.05000    0.00050      4       38    41       2
    13   -1.00000    0.00000    0.25000    -1.00000    1.60000    0.25000    0.00050      8       42    49       2
    14   -1.00000    0.00000    0.45000    -1.00000    1.60000    0.45000    0.00050      8       50    57       2
    15   -1.00000    0.00000    0.65000    -1.00000    1.60000    0.65000    0.00050      8       58    65       2
    16   -1.00000    0.00000    0.85000    -1.00000    1.60000    0.85000    0.00050      8       66    73       2
    17   -1.00000    0.00000    1.05000    -1.00000    1.60000    1.05000    0.00050      8       74    81       2
    18    1.00000    0.00000    0.25000     1.00000    0.00000    1.05000    0.00050      4       82    85       3
    19    1.00000    0.20000    0.25000     1.00000    0.20000    1.05000    0.00050      4       86    89       3
    20    1.00000    0.40000    0.25000     1.00000    0.40000    1.05000    0.00050      4       90    93       3
    21    1.00000    0.60000    0.25000     1.00000    0.60000    1.05000    0.00050      4       94    97       3
    22    1.00000    0.80000    0.25000     1.00000    0.80000    1.05000    0.00050      4       98   101       3
    23    1.00000    1.00000    0.25000     1.00000    1.00000    1.05000    0.00050      4      102   105       3
    24    1.00000    1.20000    0.25000     1.00000    1.20000    1.05000    0.00050      4      106   109       3
    25    1.00000    1.40000    0.25000     1.00000    1.40000    1.05000    0.00050      4      110   113       3
    26    1.00000    1.60000    0.25000     1.00000    1.60000    1.05000    0.00050      4      114   117       3
    27    1.00000    0.00000    0.25000     1.00000    1.60000    0.25000    0.00050      8      118   125       3
    28    1.00000    0.00000    0.45000     1.00000    1.60000    0.45000    0.00050      8      126   133       3
    29    1.00000    0.00000    0.65000     1.00000    1.60000    0.65000    0.00050      8      134   141       3
    30    1.00000    0.00000    0.85000     1.00000    1.60000    0.85000    0.00050      8      142   149       3
    31    1.00000    0.00000    1.05000     1.00000    1.60000    1.05000    0.00050      8      150   157       3
    32    0.80000    1.60000    0.25000     0.80000    1.60000    1.05000    0.00050      4      158   161       4
    33    0.60000    1.60000    0.25000     0.60000    1.60000    1.05000    0.00050      4      162   165       4
    34    0.40000    1.60000    0.25000     0.40000    1.60000    1.05000    0.00050      4      166   169       4
    35    0.20000    1.60000    0.25000     0.20000    1.60000    1.05000    0.00050      4      170   173       4
    36    0.00000    1.60000    0.25000     0.00000    1.60000    1.05000    0.00050      4      174   177       4
    37   -0.20000    1.60000    0.25000    -0.20000    1.60000    1.05000    0.00050      4      178   181       4
    38   -0.40000    1.60000    0.25000    -0.40000    1.60000    1.05000    0.00050      4      182   185       4
    39   -0.60000    1.60000    0.25000    -0.60000    1.60000    1.05000    0.00050      4      186   189       4
    40   -0.80000    1.60000    0.25000    -0.80000    1.60000    1.05000    0.00050      4      190   193       4
    41    1.00000    1.60000    0.25000    -1.00000    1.60000    0.25000    0.00050     10      194   203       4
    42    1.00000    1.60000    0.45000    -1.00000    1.60000    0.45000    0.00050     10      204   213       4
    43    1.00000    1.60000    0.65000    -1.00000    1.60000    0.65000    0.00050     10      214   223       4
    44    1.00000    1.60000    0.85000    -1.00000    1.60000    0.85000    0.00050     10      224   233       4
    45    1.00000    1.60000    1.05000    -1.00000    1.60000    1.05000    0.00050     10      234   243       4
    46    0.80000    0.00000    0.25000     0.80000    0.00000    1.05000    0.00050      4      244   247       5
    47    0.60000    0.00000    0.25000     0.60000    0.00000    1.05000    0.00050      4      248   251       5
    48    0.40000    0.00000    0.25000     0.40000    0.00000    1.05000    0.00050      4      252   255       5
    49    0.20000    0.00000    0.25000     0.20000    0.00000    1.05000    0.00050      4      256   259       5
    50    0.00000    0.00000    0.25000     0.00000    0.00000    1.05000    0.00050      4      260   263       5
    51   -0.20000    0.00000    0.25000    -0.20000    0.00000    1.05000    0.00050      4      264   267       5
    52   -0.40000    0.00000    0.25000    -0.40000    0.00000    1.05000    0.00050      4      268   271       5
    53   -0.60000    0.00000    0.25000    -0.60000    0.00000    1.05000    0.00050      4      272   275       5
    54   -0.80000    0.00000    0.25000    -0.80000    0.00000    1.05000    0.00050      4      276   279       5
    55    1.00000    0.00000    0.25000    -1.00000    0.00000    0.25000    0.00050     10      280   289       5
    56    1.00000    0.00000    0.45000    -1.00000    0.00000    0.45000    0.00050     10      290   299       5
    57    1.00000    0.00000    0.65000    -1.00000    0.00000    0.65000    0.00050     10      300   309       5
    58    1.00000    0.00000    0.85000    -1.00000    0.00000    0.85000    0.00050     10      310   319       5
    59    1.00000    0.00000    1.05000    -1.00000    0.00000    1.05000    0.00050     10      320   329       5
    60   -1.00000    0.20000    0.25000     1.00000    0.20000    0.25000    0.00050     10      330   339       6
    61   -1.00000    0.40000    0.25000     1.00000    0.40000    0.25000    0.00050     10      340   349       6
    62   -1.00000    0.60000    0.25000     1.00000    0.60000    0.25000    0.00050     10      350   359       6
    63   -1.00000    0.80000    0.25000     1.00000    0.80000    0.25000    0.00050     10      360   369       6
    64   -1.00000    1.00000    0.25000     1.00000    1.00000    0.25000    0.00050     10      370   379       6
    65   -1.00000    1.20000    0.25000     1.00000    1.20000    0.25000    0.00050     10      380   389       6
    66   -1.00000    1.40000    0.25000     1.00000    1.40000    0.25000    0.00050     10      390   399       6
    67   -0.80000    0.00000    0.25000    -0.80000    1.60000    0.25000    0.00050      8      400   407       6
    68   -0.60000    0.00000    0.25000    -0.60000    1.60000    0.25000    0.00050      8      408   415       6
    69   -0.40000    0.00000    0.25000    -0.40000    1.60000    0.25000    0.00050      8      416   423       6
    70   -0.20000    0.00000    0.25000    -0.20000    1.60000    0.25000    0.00050      8      424   431       6
    71    0.00000    0.00000    0.25000     0.00000    1.60000    0.25000    0.00050      8      432   439       6
    72    0.20000    0.00000    0.25000     0.20000    1.60000    0.25000    0.00050      8      440   447       6
    73    0.40000    0.00000    0.25000     0.40000    1.60000    0.25000    0.00050      8      448   455       6
    74    0.60000    0.00000    0.25000     0.60000    1.60000    0.25000    0.00050      8      456   463       6
    75    0.80000    0.00000    0.25000     0.80000    1.60000    0.25000    0.00050      8      464   471       6
    76   -1.00000    0.20000    1.75000     1.00000    0.20000    1.75000    0.00050     10      472   481       7
    77   -1.00000    0.40000    1.75000     1.00000    0.40000    1.75000    0.00050     10      482   491       7
    78   -1.00000    0.60000    1.75000     1.00000    0.60000    1.75000    0.00050     10      492   501       7
    79   -1.00000    0.80000    1.75000     1.00000    0.80000    1.75000    0.00050     10      502   511       7
    80   -1.00000    1.00000    1.75000     1.00000    1.00000    1.75000    0.00050     10      512   521       7
    81   -1.00000    1.20000    1.75000     1.00000    1.20000    1.75000    0.00050     10      522   531       7
    82   -1.00000    1.40000    1.75000     1.00000    1.40000    1.75000    0.00050     10      532   541       7
    83   -1.00000    0.20000    1.75000    -1.00000    1.40000    1.75000    0.00050      6      542   547       7
    84   -0.80000    0.20000    1.75000    -0.80000    1.40000    1.75000    0.00050      6      548   553       7
    85   -0.60000    0.20000    1.75000    -0.60000    1.40000    1.75000    0.00050      6      554   559       7
    86   -0.40000    0.20000    1.75000    -0.40000    1.40000    1.75000    0.00050      6      560   565       7
    87   -0.20000    0.20000    1.75000    -0.20000    1.40000    1.75000    0.00050      6      566   571       7
    88    0.00000    0.20000    1.75000     0.00000    1.40000    1.75000    0.00050      6      572   577       7
    89    0.20000    0.20000    1.75000     0.20000    1.40000    1.75000    0.00050      6      578   583       7
    90    0.40000    0.20000    1.75000     0.40000    1.40000    1.75000    0.00050      6      584   589       7
    91    0.60000    0.20000    1.75000     0.60000    1.40000    1.75000    0.00050      6      590   595       7
    92    0.80000    0.20000    1.75000     0.80000    1.40000    1.75000    0.00050      6      596   601       7
    93    1.00000    0.20000    1.75000     1.00000    1.40000    1.75000    0.00050      6      602   607       7
      THE STRUCTURE HAS BEEN MOVED, MOVE DATA CARD IS -
        0    0   0.00000   0.00000   0.00000   0.00000   0.00000   0.00000   0.00000

   GROUND PLANE SPECIFIED.

   TOTAL SEGMENTS USED=  607     NO. SEG. IN A SYMMETRIC CELL=  607     SYMMETRY FLAG=  0


         - MULTIPLE WIRE JUNCTIONS -
 JUNCTION    SEGMENTS  (- FOR END 1, + FOR END 2)
     1        -6  -42  289
     2         6   -7  -50  299
     3         7   -8  -58  309
     4         8   -9  -66  319
     5         9  -74  329
     6       -10   42  -43 -330
     7        10  -11   50  -51
     8        11  -12   58  -59
     9        12  -13   66  -67
    10        13   74  -75
    11       -14   43  -44 -340
    12        14  -15   51  -52
    13        15  -16   59  -60
    14        16  -17   67  -68
    15        17   75  -76
    16       -18   44  -45 -350
    17        18  -19   52  -53
    18        19  -20   60  -61
    19        20  -21   68  -69
    20        21   76  -77
    21       -22   45  -46 -360
    22        22  -23   53  -54
    23        23  -24   61  -62
    24        24  -25   69  -70
    25        25   77  -78
    26       -26   46  -47 -370
    27        26  -27   54  -55
    28        27  -28   62  -63
    29        28  -29   70  -71
    30        29   78  -79
    31       -30   47  -48 -380
    32        30  -31   55  -56
    33        31  -32   63  -64
    34        32  -33   71  -72
    35        33   79  -80
    36       -34   48  -49 -390
    37        34  -35   56  -57
    38        35  -36   64  -65
    39        36  -37   72  -73
    40        37   80  -81
    41       -38   49  203
    42        38  -39   57  213
    43        39  -40   65  223
    44        40  -41   73  233
    45        41   81  243
    46       -82 -118 -280
    47        82  -83 -126 -290
    48        83  -84 -134 -300
    49        84  -85 -142 -310
    50        85 -150 -320
    51       -86  118 -119  339
    52        86  -87  126 -127
    53        87  -88  134 -135
    54        88  -89  142 -143
    55        89  150 -151
    56       -90  119 -120  349
    57        90  -91  127 -128
    58        91  -92  135 -136
    59        92  -93  143 -144
    60        93  151 -152
    61       -94  120 -121  359
    62        94  -95  128 -129
    63        95  -96  136 -137
    64        96  -97  144 -145
    65        97  152 -153
    66       -98  121 -122  369
    67        98  -99  129 -130
    68        99 -100  137 -138
    69       100 -101  145 -146
    70       101  153 -154
    71      -102  122 -123  379
    72       102 -103  130 -131
    73       103 -104  138 -139
    74       104 -105  146 -147
    75       105  154 -155
    76      -106  123 -124  389
    77       106 -107  131 -132
    78       107 -108  139 -140
    79       108 -109  147 -148
    80       109  155 -156
    81      -110  124 -125  399
    82       110 -111  132 -133
    83       111 -112  140 -141
    84       112 -113  148 -149
    85       113  156 -157
    86      -114  125 -194
    87       114 -115  133 -204
    88       115 -116  141 -214
    89       116 -117  149 -224
    90       117  157 -234
    91      -158  194 -195  471
    92       158 -159  204 -205
    93       159 -160  214 -215
    94       160 -161  224 -225
    95       161  234 -235
    96      -162  195 -196  463
    97       162 -163  205 -206
    98       163 -164  215 -216
    99       164 -165  225 -226
   100       165  235 -236
   101      -166  196 -197  455
   102       166 -167  206 -207
   103       167 -168  216 -217
   104       168 -169  226 -227
   105       169  236 -237
   106      -170  197 -198  447
   107       170 -171  207 -208
   108       171 -172  217 -218
   109       172 -173  227 -228
   110       173  237 -238
   111      -174  198 -199  439
   112       174 -175  208 -209
   113       175 -176  218 -219
   114       176 -177  228 -229
   115       177  238 -239
   116      -178  199 -200  431
   117       178 -179  209 -210
   118       179 -180  219 -220
   119       180 -181  229 -230
   120       181  239 -240
   121      -182  200 -201  423
   122       182 -183  210 -211
   123       183 -184  220 -221
   124       184 -185  230 -231
   125       185  240 -241
   126      -186  201 -202  415
   127       186 -187  211 -212
   128       187 -188  221 -222
   129       188 -189  231 -232
   130       189  241 -242
   131      -190  202 -203  407
   132       190 -191  212 -213
   133       191 -192  222 -223
   134       192 -193  232 -233
   135       193  242 -243
   136      -244  280 -281 -464
   137       244 -245  290 -291
   138       245 -246  300 -301
   139       246 -247  310 -311
   140       247  320 -321
   141      -248  281 -282 -456
   142       248 -249  291 -292
   143       249 -250  301 -302
   144       250 -251  311 -312
   145       251  321 -322
   146      -252  282 -283 -448
   147       252 -253  292 -293
   148       253 -254  302 -303
   149       254 -255  312 -313
   150       255  322 -323
   151      -256  283 -284 -440
   152       256 -257  293 -294
   153       257 -258  303 -304
   154       258 -259  313 -314
   155       259  323 -324
   156      -260  284 -285 -432
   157       260 -261  294 -295
   158       261 -262  304 -305
   159       262 -263  314 -315
   160       263  324 -325
   161      -264  285 -286 -424
   162       264 -265  295 -296
   163       265 -266  305 -306
   164       266 -267  315 -316
   165       267  325 -326
   166      -268  286 -287 -416
   167       268 -269  296 -297
   168       269 -270  306 -307
   169       270 -271  316 -317
   170       271  326 -327
   171      -272  287 -288 -408
   172       272 -273  297 -298
   173       273 -274  307 -308
   174       274 -275  317 -318
   175       275  327 -328
   176      -276  288 -289 -400
   177       276 -277  298 -299
   178       277 -278  308 -309
   179       278 -279  318 -319
   180       279  328 -329
   181       330 -331  400 -401
   182       331 -332  408 -409
   183       332 -333  416 -417
   184       333 -334  424 -425
   185       334 -335  432 -433
   186       335 -336  440 -441
   187       336 -337  448 -449
   188       337 -338  456 -457
   189       338 -339  464 -465
   190       340 -341  401 -402
   191       341 -342  409 -410
   192       342 -343  417 -418
   193       343 -344  425 -426
   194       344 -345  433 -434
   195       345 -346  441 -442
   196       346 -347  449 -450
   197       347 -348  457 -458
   198       348 -349  465 -466
   199       350 -351  402 -403
   200       351 -352  410 -411
   201       352 -353  418 -419
   202       353 -354  426 -427
   203       354 -355  434 -435
   204       355 -356  442 -443
   205       356 -357  450 -451
   206       357 -358  458 -459
   207       358 -359  466 -467
   208       360 -361  403 -404
   209       361 -362  411 -412
   210       362 -363  419 -420
   211       363 -364  427 -428
   212       364 -365  435 -436
   213       365 -366  443 -444
   214       366 -367  451 -452
   215       367 -368  459 -460
   216       368 -369  467 -468
   217       370 -371  404 -405
   218       371 -372  412 -413
   219       372 -373  420 -421
   220       373 -374  428 -429
   221       374 -375  436 -437
   222       375 -376  444 -445
   223       376 -377  452 -453
   224       377 -378  460 -461
   225       378 -379  468 -469
   226       380 -381  405 -406
   227       381 -382  413 -414
   228       382 -383  421 -422
   229       383 -384  429 -430
   230       384 -385  437 -438
   231       385 -386  445 -446
   232       386 -387  453 -454
   233       387 -388  461 -462
   234       388 -389  469 -470
   235       390 -391  406 -407
   236       391 -392  414 -415
   237       392 -393  422 -423
   238       393 -394  430 -431
   239       394 -395  438 -439
   240       395 -396  446 -447
   241       396 -397  454 -455
   242       397 -398  462 -463
   243       398 -399  470 -471
   244       472 -473 -548
   245       473 -474 -554
   246       474 -475 -560
   247       475 -476 -566
   248       476 -477 -572
   249       477 -478 -578
   250       478 -479 -584
   251       479 -480 -590
   252       480 -481 -596
   253      -482  542 -543
   254       482 -483  548 -549
   255       483 -484  554 -555
   256       484 -485  560 -561
   257       485 -486  566 -567
   258       486 -487  572 -573
   259       487 -488  578 -579
   260       488 -489  584 -585
   261       489 -490  590 -591
   262       490 -491  596 -597
   263       491  602 -603
   264      -492  543 -544
   265       492 -493  549 -550
   266       493 -494  555 -556
   267       494 -495  561 -562
   268       495 -496  567 -568
   269       496 -497  573 -574
   270       497 -498  579 -580
   271       498 -499  585 -586
   272       499 -500  591 -592
   273       500 -501  597 -598
   274       501  603 -604
   275      -502  544 -545
   276       502 -503  550 -551
   277       503 -504  556 -557
   278       504 -505  562 -563
   279       505 -506  568 -569
   280       506 -507  574 -575
   281       507 -508  580 -581
   282       508 -509  586 -587
   283       509 -510  592 -593
   284       510 -511  598 -599
   285       511  604 -605
   286      -512  545 -546
   287       512 -513  551 -552
   288       513 -514  557 -558
   289       514 -515  563 -564
   290       515 -516  569 -570
   291       516 -517  575 -576
   292       517 -518  581 -582
   293       518 -519  587 -588
   294       519 -520  593 -594
   295       520 -521  599 -600
   296       521  605 -606
   297      -522  546 -547
   298       522 -523  552 -553
   299       523 -524  558 -559
   300       524 -525  564 -565
   301       525 -526  570 -571
   302       526 -527  576 -577
   303       527 -528  582 -583
   304       528 -529  588 -589
   305       529 -530  594 -595
   306       530 -531  600 -601
   307       531  606 -607
   308       532 -533  553
   309       533 -534  559
   310       534 -535  565
   311       535 -536  571
   312       536 -537  577
   313       537 -538  583
   314       538 -539  589
   315       539 -540  595
   316       540 -541  601




                                 - - - - SEGMENTATION DATA - - - -

                                        COORDINATES IN METERS

                         I+ AND I- INDICATE THE SEGMENTS BEFORE AND AFTER I


  SEG.   COORDINATES OF SEG. CENTER     SEG.     ORIENTATION ANGLES    WIRE    CONNECTION DATA   TAG
  NO.       X         Y         Z       LENGTH     ALPHA     BETA      RADIUS    I-   I    I+    NO.
     1   0.50000   1.28000   0.85100   0.05200   90.00000   0.00000   0.00500     0    1    2      1
     2   0.50000   1.28000   0.90300   0.05200   90.00000   0.00000   0.00500     1    2    3      1
     3   0.50000   1.28000   0.95500   0.05200   90.00000   0.00000   0.00500     2    3    4    999
     4   0.50000   1.28000   1.00450   0.04700   90.00000   0.00000   0.00500     3    4    5      1
     5   0.50000   1.28000   1.05150   0.04700   90.00000   0.00000   0.00500     4    5    0      1
     6  -1.00000   0.00000   0.35000   0.20000   90.00000   0.00000   0.00050   -42    6    7      2
     7  -1.00000   0.00000   0.55000   0.20000   90.00000   0.00000   0.00050   -50    7    8      2
     8  -1.00000   0.00000   0.75000   0.20000   90.00000   0.00000   0.00050   -58    8    9      2
     9  -1.00000   0.00000   0.95000   0.20000   90.00000   0.00000   0.00050   -66    9   74      2
    10  -1.00000   0.20000   0.35000   0.20000   90.00000   0.00000   0.00050    42   10   11      2
    11  -1.00000   0.20000   0.55000   0.20000   90.00000   0.00000   0.00050    50   11   12      2
    12  -1.00000   0.20000   0.75000   0.20000   90.00000   0.00000   0.00050    58   12   13      2
    13  -1.00000   0.20000   0.95000   0.20000   90.00000  90.00000   0.00050    66   13  -74      2
    14  -1.00000   0.40000   0.35000   0.20000   90.00000   0.00000   0.00050    43   14   15      2
    15  -1.00000   0.40000   0.55000   0.20000   90.00000   0.00000   0.00050    51   15   16      2
    16  -1.00000   0.40000   0.75000   0.20000   90.00000   0.00000   0.00050    59   16   17      2
    17  -1.00000   0.40000   0.95000   0.20000   90.00000  90.00000   0.00050    67   17  -75      2
    18  -1.00000   0.60000   0.35000   0.20000   90.00000   0.00000   0.00050    44   18   19      2
    19  -1.00000   0.60000   0.55000   0.20000   90.00000   0.00000   0.00050    52   19   20      2
    20  -1.00000   0.60000   0.75000   0.20000   90.00000   0.00000   0.00050    60   20   21      2
    21  -1.00000   0.60000   0.95000   0.20000   90.00000   0.00000   0.00050    68   21  -76      2
    22  -1.00000   0.80000   0.35000   0.20000   90.00000   0.00000   0.00050    45   22   23      2
    23  -1.00000   0.80000   0.55000   0.20000   90.00000   0.00000   0.00050    53   23   24      2
    24  -1.00000   0.80000   0.75000   0.20000   90.00000   0.00000   0.00050    61   24   25      2
    25  -1.00000   0.80000   0.95000   0.20000   90.00000  90.00000   0.00050    69   25  -77      2
    26  -1.00000   1.00000   0.35000   0.20000   90.00000   0.00000   0.00050    46   26   27      2
    27  -1.00000   1.00000   0.55000   0.20000   90.00000   0.00000   0.00050    54   27   28      2
    28  -1.00000   1.00000   0.75000   0.20000   90.00000   0.00000   0.00050    62   28   29      2
    29  -1.00000   1.00000   0.95000   0.20000   90.00000   0.00000   0.00050    70   29  -78      2
    30  -1.00000   1.20000   0.35000   0.20000   90.00000   0.00000   0.00050    47   30   31      2
    31  -1.00000   1.20000   0.55000   0.20000   90.00000   0.00000   0.00050    55   31   32      2
    32  -1.00000   1.20000   0.75000   0.20000   90.00000   0.00000   0.00050    63   32   33      2
    33  -1.00000   1.20000   0.95000   0.20000   90.00000   0.00000   0.00050    71   33  -79      2
    34  -1.00000   1.40000   0.35000   0.20000   90.00000  90.00000   0.00050    48   34   35      2
    35  -1.00000   1.40000   0.55000   0.20000   90.00000   0.00000   0.00050    56   35   36      2
    36  -1.00000   1.40000   0.75000   0.20000   90.00000   0.00000   0.00050    64   36   37      2
    37  -1.00000   1.40000   0.95000   0.20000   90.00000   0.00000   0.00050    72   37  -80      2
    38  -1.00000   1.60000   0.35000   0.20000   90.00000 -90.00000   0.00050    49   38   39      2
    39  -1.00000   1.60000   0.55000   0.20000   90.00000   0.00000   0.00050    57   39   40      2
    40  -1.00000   1.60000   0.75000   0.20000   90.00000   0.00000   0.00050    65   40   41      2
    41  -1.00000   1.60000   0.95000   0.20000   90.00000  90.00000   0.00050    73   41  -81      2
    42  -1.00000   0.10000   0.25000   0.20000    0.00000  90.00000   0.00050   289   42   43      2
    43  -1.00000   0.30000   0.25000   0.20000    0.00000  90.00000   0.00050  -330   43   44      2
    44  -1.00000   0.50000   0.25000   0.20000    0.00000  90.00000   0.00050  -340   44   45      2
    45  -1.00000   0.70000   0.25000   0.20000    0.00000  90.00000   0.00050  -350   45   46      2
    46  -1.00000   0.90000   0.25000   0.20000    0.00000  90.00000   0.00050  -360   46   47      2
    47  -1.00000   1.10000   0.25000   0.20000    0.00000  90.00000   0.00050  -370   47   48      2
    48  -1.00000   1.30000   0.25000   0.20000    0.00000  90.00000   0.00050  -380   48   49      2
    49  -1.00000   1.50000   0.25000   0.20000    0.00000  90.00000   0.00050  -390   49 -203      2
    50  -1.00000   0.10000   0.45000   0.20000    0.00000  90.00000   0.00050   299   50   51      2
    51  -1.00000   0.30000   0.45000   0.20000    0.00000  90.00000   0.00050    10   51   52      2
    52  -1.00000   0.50000   0.45000   0.20000    0.00000  90.00000   0.00050    14   52   53      2
    53  -1.00000   0.70000   0.45000   0.20000    0.00000  90.00000   0.00050    18   53   54      2
    54  -1.00000   0.90000   0.45000   0.20000    0.00000  90.00000   0.00050    22   54   55      2
    55  -1.00000   1.10000   0.45000   0.20000    0.00000  90.00000   0.00050    26   55   56      2
    56  -1.00000   1.30000   0.45000   0.20000    0.00000  90.00000   0.00050    30   56   57      2
    57  -1.00000   1.50000   0.45000   0.20000    0.00000  90.00000   0.00050    34   57 -213      2
    58  -1.00000   0.10000   0.65000   0.20000    0.00000  90.00000   0.00050   309   58   59      2
    59  -1.00000   0.30000   0.65000   0.20000    0.00000  90.00000   0.00050    11   59   60      2
    60  -1.00000   0.50000   0.65000   0.20000    0.00000  90.00000   0.00050    15   60   61      2
    61  -1.00000   0.70000   0.65000   0.20000    0.00000  90.00000   0.00050    19   61   62      2
    62  -1.00000   0.90000   0.65000   0.20000    0.00000  90.00000   0.00050    23   62   63      2
    63  -1.00000   1.10000   0.65000   0.20000    0.00000  90.00000   0.00050    27   63   64      2
    64  -1.00000   1.30000   0.65000   0.20000    0.00000  90.00000   0.00050    31   64   65      2
    65  -1.00000   1.50000   0.65000   0.20000    0.00000  90.00000   0.00050    35   65 -223      2
    66  -1.00000   0.10000   0.85000   0.20000    0.00000  90.00000   0.00050   319   66   67      2
    67  -1.00000   0.30000   0.85000   0.20000    0.00000  90.00000   0.00050    12   67   68      2
    68  -1.00000   0.50000   0.85000   0.20000    0.00000  90.00000   0.00050    16   68   69      2
    69  -1.00000   0.70000   0.85000   0.20000    0.00000  90.00000   0.00050    20   69   70      2
    70  -1.00000   0.90000   0.85000   0.20000    0.00000  90.00000   0.00050    24   70   71      2
    71  -1.00000   1.10000   0.85000   0.20000    0.00000  90.00000   0.00050    28   71   72      2
    72  -1.00000   1.30000   0.85000   0.20000    0.00000  90.00000   0.00050    32   72   73      2
    73  -1.00000   1.50000   0.85000   0.20000    0.00000  90.00000   0.00050    36   73 -233      2
    74  -1.00000   0.10000   1.05000   0.20000    0.00000  90.00000   0.00050   329   74   75      2
    75  -1.00000   0.30000   1.05000   0.20000    0.00000  90.00000   0.00050    13   75   76      2
    76  -1.00000   0.50000   1.05000   0.20000    0.00000  90.00000   0.00050    17   76   77      2
    77  -1.00000   0.70000   1.05000   0.20000    0.00000  90.00000   0.00050    21   77   78      2
    78  -1.00000   0.90000   1.05000   0.20000    0.00000  90.00000   0.00050    25   78   79      2
    79  -1.00000   1.10000   1.05000   0.20000    0.00000  90.00000   0.00050    29   79   80      2
    80  -1.00000   1.30000   1.05000   0.20000    0.00000  90.00000   0.00050    33   80   81      2
    81  -1.00000   1.50000   1.05000   0.20000    0.00000  90.00000   0.00050    37   81 -243      2
    82   1.00000   0.00000   0.35000   0.20000   90.00000   0.00000   0.00050  -118   82   83      3
    83   1.00000   0.00000   0.55000   0.20000   90.00000   0.00000   0.00050  -126   83   84      3
    84   1.00000   0.00000   0.75000   0.20000   90.00000   0.00000   0.00050  -134   84   85      3
    85   1.00000   0.00000   0.95000   0.20000   90.00000   0.00000   0.00050  -142   85  150      3
    86   1.00000   0.20000   0.35000   0.20000   90.00000   0.00000   0.00050   118   86   87      3
    87   1.00000   0.20000   0.55000   0.20000   90.00000   0.00000   0.00050   126   87   88      3
    88   1.00000   0.20000   0.75000   0.20000   90.00000   0.00000   0.00050   134   88   89      3
    89   1.00000   0.20000   0.95000   0.20000   90.00000  90.00000   0.00050   142   89 -150      3
    90   1.00000   0.40000   0.35000   0.20000   90.00000   0.00000   0.00050   119   90   91      3
    91   1.00000   0.40000   0.55000   0.20000   90.00000   0.00000   0.00050   127   91   92      3
    92   1.00000   0.40000   0.75000   0.20000   90.00000   0.00000   0.00050   135   92   93      3
    93   1.00000   0.40000   0.95000   0.20000   90.00000  90.00000   0.00050   143   93 -151      3
    94   1.00000   0.60000   0.35000   0.20000   90.00000   0.00000   0.00050   120   94   95      3
    95   1.00000   0.60000   0.55000   0.20000   90.00000   0.00000   0.00050   128   95   96      3
    96   1.00000   0.60000   0.75000   0.20000   90.00000   0.00000   0.00050   136   96   97      3
    97   1.00000   0.60000   0.95000   0.20000   90.00000   0.00000   0.00050   144   97 -152      3
    98   1.00000   0.80000   0.35000   0.20000   90.00000   0.00000   0.00050   121   98   99      3
    99   1.00000   0.80000   0.55000   0.20000   90.00000   0.00000   0.00050   129   99  100      3
   100   1.00000   0.80000   0.75000   0.20000   90.00000   0.00000   0.00050   137  100  101      3
   101   1.00000   0.80000   0.95000   0.20000   90.00000  90.00000   0.00050   145  101 -153      3
   102   1.00000   1.00000   0.35000   0.20000   90.00000   0.00000   0.00050   122  102  103      3
   103   1.00000   1.00000   0.55000   0.20000   90.00000   0.00000   0.00050   130  103  104      3
   104   1.00000   1.00000   0.75000   0.20000   90.00000   0.00000   0.00050   138  104  105      3
   105   1.00000   1.00000   0.95000   0.20000   90.00000   0.00000   0.00050   146  105 -154      3
   106   1.00000   1.20000   0.35000   0.20000   90.00000   0.00000   0.00050   123  106  107      3
   107   1.00000   1.20000   0.55000   0.20000   90.00000   0.00000   0.00050   131  107  108      3
   108   1.00000   1.20000   0.75000   0.20000   90.00000   0.00000   0.00050   139  108  109      3
   109   1.00000   1.20000   0.95000   0.20000   90.00000   0.00000   0.00050   147  109 -155      3
   110   1.00000   1.40000   0.35000   0.20000   90.00000  90.00000   0.00050   124  110  111      3
   111   1.00000   1.40000   0.55000   0.20000   90.00000   0.00000   0.00050   132  111  112      3
   112   1.00000   1.40000   0.75000   0.20000   90.00000   0.00000   0.00050   140  112  113      3
   113   1.00000   1.40000   0.95000   0.20000   90.00000   0.00000   0.00050   148  113 -156      3
   114   1.00000   1.60000   0.35000   0.20000   90.00000 -90.00000   0.00050   125  114  115      3
   115   1.00000   1.60000   0.55000   0.20000   90.00000   0.00000   0.00050   133  115  116      3
   116   1.00000   1.60000   0.75000   0.20000   90.00000   0.00000   0.00050   141  116  117      3
   117   1.00000   1.60000   0.95000   0.20000   90.00000  90.00000   0.00050   149  117 -157      3
   118   1.00000   0.10000   0.25000   0.20000    0.00000  90.00000   0.00050  -280  118  119      3
   119   1.00000   0.30000   0.25000   0.20000    0.00000  90.00000   0.00050   339  119  120      3
   120   1.00000   0.50000   0.25000   0.20000    0.00000  90.00000   0.00050   349  120  121      3
   121   1.00000   0.70000   0.25000   0.20000    0.00000  90.00000   0.00050   359  121  122      3
   122   1.00000   0.90000   0.25000   0.20000    0.00000  90.00000   0.00050   369  122  123      3
   123   1.00000   1.10000   0.25000   0.20000    0.00000  90.00000   0.00050   379  123  124      3
   124   1.00000   1.30000   0.25000   0.20000    0.00000  90.00000   0.00050   389  124  125      3
   125   1.00000   1.50000   0.25000   0.20000    0.00000  90.00000   0.00050   399  125  194      3
   126   1.00000   0.10000   0.45000   0.20000    0.00000  90.00000   0.00050  -290  126  127      3
   127   1.00000   0.30000   0.45000   0.20000    0.00000  90.00000   0.00050    86  127  128      3
   128   1.00000   0.50000   0.45000   0.20000    0.00000  90.00000   0.00050    90  128  129      3
   129   1.00000   0.70000   0.45000   0.20000    0.00000  90.00000   0.00050    94  129  130      3
   130   1.00000   0.90000   0.45000   0.20000    0.00000  90.00000   0.00050    98  130  131      3
   131   1.00000   1.10000   0.45000   0.20000    0.00000  90.00000   0.00050   102  131  132      3
   132   1.00000   1.30000   0.45000   0.20000    0.00000  90.00000   0.00050   106  132  133      3
   133   1.00000   1.50000   0.45000   0.20000    0.00000  90.00000   0.00050   110  133  204      3
   134   1.00000   0.10000   0.65000   0.20000    0.00000  90.00000   0.00050  -300  134  135      3
   135   1.00000   0.30000   0.65000   0.20000    0.00000  90.00000   0.00050    87  135  136      3
   136   1.00000   0.50000   0.65000   0.20000    0.00000  90.00000   0.00050    91  136  137      3
   137   1.00000   0.70000   0.65000   0.20000    0.00000  90.00000   0.00050    95  137  138      3
   138   1.00000   0.90000   0.65000   0.20000    0.00000  90.00000   0.00050    99  138  139      3
   139   1.00000   1.10000   0.65000   0.20000    0.00000  90.00000   0.00050   103  139  140      3
   140   1.00000   1.30000   0.65000   0.20000    0.00000  90.00000   0.00050   107  140  141      3
   141   1.00000   1.50000   0.65000   0.20000    0.00000  90.00000   0.00050   111  141  214      3
   142   1.00000   0.10000   0.85000   0.20000    0.00000  90.00000   0.00050  -310  142  143      3
   143   1.00000   0.30000   0.85000   0.20000    0.00000  90.00000   0.00050    88  143  144      3
   144   1.00000   0.50000   0.85000   0.20000    0.00000  90.00000   0.00050    92  144  145      3
   145   1.00000   0.70000   0.85000   0.20000    0.00000  90.00000   0.00050    96  145  146      3
   146   1.00000   0.90000   0.85000   0.20000    0.00000  90.00000   0.00050   100  146  147      3
   147   1.00000   1.10000   0.85000   0.20000    0.00000  90.00000   0.00050   104  147  148      3
   148   1.00000   1.30000   0.85000   0.20000    0.00000  90.00000   0.00050   108  148  149      3
   149   1.00000   1.50000   0.85000   0.20000    0.00000  90.00000   0.00050   112  149  224      3
   150   1.00000   0.10000   1.05000   0.20000    0.00000  90.00000   0.00050  -320  150  151      3
   151   1.00000   0.30000   1.05000   0.20000    0.00000  90.00000   0.00050    89  151  152      3
   152   1.00000   0.50000   1.05000   0.20000    0.00000  90.00000   0.00050    93  152  153      3
   153   1.00000   0.70000   1.05000   0.20000    0.00000  90.00000   0.00050    97  153  154      3
   154   1.00000   0.90000   1.05000   0.20000    0.00000  90.00000   0.00050   101  154  155      3
   155   1.00000   1.10000   1.05000   0.20000    0.00000  90.00000   0.00050   105  155  156      3
   156   1.00000   1.30000   1.05000   0.20000    0.00000  90.00000   0.00050   109  156  157      3
   157   1.00000   1.50000   1.05000   0.20000    0.00000  90.00000   0.00050   113  157  234      3
   158   0.80000   1.60000   0.35000   0.20000   90.00000   0.00000   0.00050   194  158  159      4
   159   0.80000   1.60000   0.55000   0.20000   90.00000   0.00000   0.00050   204  159  160      4
   160   0.80000   1.60000   0.75000   0.20000   90.00000   0.00000   0.00050   214  160  161      4
   161   0.80000   1.60000   0.95000   0.20000   90.00000  63.43495   0.00050   224  161 -234      4
   162   0.60000   1.60000   0.35000   0.20000   90.00000   0.00000   0.00050   195  162  163      4
   163   0.60000   1.60000   0.55000   0.20000   90.00000   0.00000   0.00050   205  163  164      4
   164   0.60000   1.60000   0.75000   0.20000   90.00000   0.00000   0.00050   215  164  165      4
   165   0.60000   1.60000   0.95000   0.20000   90.00000  90.00000   0.00050   225  165 -235      4
   166   0.40000   1.60000   0.35000   0.20000   90.00000 180.00000   0.00050   196  166  167      4
   167   0.40000   1.60000   0.55000   0.20000   90.00000   0.00000   0.00050   206  167  168      4
   168   0.40000   1.60000   0.75000   0.20000   90.00000   0.00000   0.00050   216  168  169      4
   169   0.40000   1.60000   0.95000   0.20000   90.00000  90.00000   0.00050   226  169 -236      4
   170   0.20000   1.60000   0.35000   0.20000   90.00000   0.00000   0.00050   197  170  171      4
   171   0.20000   1.60000   0.55000   0.20000   90.00000   0.00000   0.00050   207  171  172      4
   172   0.20000   1.60000   0.75000   0.20000   90.00000   0.00000   0.00050   217  172  173      4
   173   0.20000   1.60000   0.95000   0.20000   90.00000  97.12502   0.00050   227  173 -237      4
   174   0.00000   1.60000   0.35000   0.20000   90.00000   0.00000   0.00050   198  174  175      4
   175   0.00000   1.60000   0.55000   0.20000   90.00000   0.00000   0.00050   208  175  176      4
   176   0.00000   1.60000   0.75000   0.20000   90.00000   0.00000   0.00050   218  176  177      4
   177   0.00000   1.60000   0.95000   0.20000   90.00000  92.38594   0.00050   228  177 -238      4
   178  -0.20000   1.60000   0.35000   0.20000   90.00000 180.00000   0.00050   199  178  179      4
   179  -0.20000   1.60000   0.55000   0.20000   90.00000   0.00000   0.00050   209  179  180      4
   180  -0.20000   1.60000   0.75000   0.20000   90.00000   0.00000   0.00050   219  180  181      4
   181  -0.20000   1.60000   0.95000   0.20000   90.00000  90.00000   0.00050   229  181 -239      4
   182  -0.40000   1.60000   0.35000   0.20000   90.00000 180.00000   0.00050   200  182  183      4
   183  -0.40000   1.60000   0.55000   0.20000   90.00000   0.00000   0.00050   210  183  184      4
   184  -0.40000   1.60000   0.75000   0.20000   90.00000   0.00000   0.00050   220  184  185      4
   185  -0.40000   1.60000   0.95000   0.20000   90.00000  90.00000   0.00050   230  185 -240      4
   186  -0.60000   1.60000   0.35000   0.20000   90.00000   0.00000   0.00050   201  186  187      4
   187  -0.60000   1.60000   0.55000   0.20000   90.00000   0.00000   0.00050   211  187  188      4
   188  -0.60000   1.60000   0.75000   0.20000   90.00000   0.00000   0.00050   221  188  189      4
   189  -0.60000   1.60000   0.95000   0.20000   90.00000  90.00000   0.00050   231  189 -241      4
   190  -0.80000   1.60000   0.35000   0.20000   90.00000   0.00000   0.00050   202  190  191      4
   191  -0.80000   1.60000   0.55000   0.20000   90.00000   0.00000   0.00050   212  191  192      4
   192  -0.80000   1.60000   0.75000   0.20000   90.00000   0.00000   0.00050   222  192  193      4
   193  -0.80000   1.60000   0.95000   0.20000   90.00000 116.56505   0.00050   232  193 -242      4
   194   0.90000   1.60000   0.25000   0.20000    0.00000-180.00000   0.00050  -114  194  195      4
   195   0.70000   1.60000   0.25000   0.20000    0.00000 180.00000   0.00050   471  195  196      4
   196   0.50000   1.60000   0.25000   0.20000    0.00000 180.00000   0.00050   463  196  197      4
   197   0.30000   1.60000   0.25000   0.20000    0.00000 180.00000   0.00050   455  197  198      4
   198   0.10000   1.60000   0.25000   0.20000    0.00000 180.00000   0.00050   447  198  199      4
   199  -0.10000   1.60000   0.25000   0.20000    0.00000 180.00000   0.00050   439  199  200      4
   200  -0.30000   1.60000   0.25000   0.20000    0.00000 180.00000   0.00050   431  200  201      4
   201  -0.50000   1.60000   0.25000   0.20000    0.00000 180.00000   0.00050   423  201  202      4
   202  -0.70000   1.60000   0.25000   0.20000    0.00000 180.00000   0.00050   415  202  203      4
   203  -0.90000   1.60000   0.25000   0.20000    0.00000 180.00000   0.00050   407  203   38      4
   204   0.90000   1.60000   0.45000   0.20000    0.00000 180.00000   0.00050   114  204  205      4
   205   0.70000   1.60000   0.45000   0.20000    0.00000 180.00000   0.00050   158  205  206      4
   206   0.50000   1.60000   0.45000   0.20000    0.00000 180.00000   0.00050   162  206  207      4
   207   0.30000   1.60000   0.45000   0.20000    0.00000 180.00000   0.00050   166  207  208      4
   208   0.10000   1.60000   0.45000   0.20000    0.00000 180.00000   0.00050   170  208  209      4
   209  -0.10000   1.60000   0.45000   0.20000    0.00000 180.00000   0.00050   174  209  210      4
   210  -0.30000   1.60000   0.45000   0.20000    0.00000 180.00000   0.00050   178  210  211      4
   211  -0.50000   1.60000   0.45000   0.20000    0.00000 180.00000   0.00050   182  211  212      4
   212  -0.70000   1.60000   0.45000   0.20000    0.00000 180.00000   0.00050   186  212  213      4
   213  -0.90000   1.60000   0.45000   0.20000    0.00000 180.00000   0.00050   190  213  -38      4
   214   0.90000   1.60000   0.65000   0.20000    0.00000 180.00000   0.00050   115  214  215      4
   215   0.70000   1.60000   0.65000   0.20000    0.00000 180.00000   0.00050   159  215  216      4
   216   0.50000   1.60000   0.65000   0.20000    0.00000 180.00000   0.00050   163  216  217      4
   217   0.30000   1.60000   0.65000   0.20000    0.00000 180.00000   0.00050   167  217  218      4
   218   0.10000   1.60000   0.65000   0.20000    0.00000 180.00000   0.00050   171  218  219      4
   219  -0.10000   1.60000   0.65000   0.20000    0.00000 180.00000   0.00050   175  219  220      4
   220  -0.30000   1.60000   0.65000   0.20000    0.00000 180.00000   0.00050   179  220  221      4
   221  -0.50000   1.60000   0.65000   0.20000    0.00000 180.00000   0.00050   183  221  222      4
   222  -0.70000   1.60000   0.65000   0.20000    0.00000 180.00000   0.00050   187  222  223      4
   223  -0.90000   1.60000   0.65000   0.20000    0.00000 180.00000   0.00050   191  223  -39      4
   224   0.90000   1.60000   0.85000   0.20000    0.00000 180.00000   0.00050   116  224  225      4
   225   0.70000   1.60000   0.85000   0.20000    0.00000 180.00000   0.00050   160  225  226      4
   226   0.50000   1.60000   0.85000   0.20000    0.00000 180.00000   0.00050   164  226  227      4
   227   0.30000   1.60000   0.85000   0.20000    0.00000 180.00000   0.00050   168  227  228      4
   228   0.10000   1.60000   0.85000   0.20000    0.00000 180.00000   0.00050   172  228  229      4
   229  -0.10000   1.60000   0.85000   0.20000    0.00000 180.00000   0.00050   176  229  230      4
   230  -0.30000   1.60000   0.85000   0.20000    0.00000 180.00000   0.00050   180  230  231      4
   231  -0.50000   1.60000   0.85000   0.20000    0.00000 180.00000   0.00050   184  231  232      4
   232  -0.70000   1.60000   0.85000   0.20000    0.00000 180.00000   0.00050   188  232  233      4
   233  -0.90000   1.60000   0.85000   0.20000    0.00000 180.00000   0.00050   192  233  -40      4
   234   0.90000   1.60000   1.05000   0.20000    0.00000 180.00000   0.00050   117  234  235      4
   235   0.70000   1.60000   1.05000   0.20000    0.00000 180.00000   0.00050   161  235  236      4
   236   0.50000   1.60000   1.05000   0.20000    0.00000 180.00000   0.00050   165  236  237      4
   237   0.30000   1.60000   1.05000   0.20000    0.00000 180.00000   0.00050   169  237  238      4
   238   0.10000   1.60000   1.05000   0.20000    0.00000 180.00000   0.00050   173  238  239      4
   239  -0.10000   1.60000   1.05000   0.20000    0.00000 180.00000   0.00050   177  239  240      4
   240  -0.30000   1.60000   1.05000   0.20000    0.00000 180.00000   0.00050   181  240  241      4
   241  -0.50000   1.60000   1.05000   0.20000    0.00000 180.00000   0.00050   185  241  242      4
   242  -0.70000   1.60000   1.05000   0.20000    0.00000 180.00000   0.00050   189  242  243      4
   243  -0.90000   1.60000   1.05000   0.20000    0.00000 180.00000   0.00050   193  243  -41      4
   244   0.80000   0.00000   0.35000   0.20000   90.00000   0.00000   0.00050   280  244  245      5
   245   0.80000   0.00000   0.55000   0.20000   90.00000   0.00000   0.00050   290  245  246      5
   246   0.80000   0.00000   0.75000   0.20000   90.00000   0.00000   0.00050   300  246  247      5
   247   0.80000   0.00000   0.95000   0.20000   90.00000   0.00000   0.00050   310  247 -320      5
   248   0.60000   0.00000   0.35000   0.20000   90.00000   0.00000   0.00050   281  248  249      5
   249   0.60000   0.00000   0.55000   0.20000   90.00000   0.00000   0.00050   291  249  250      5
   250   0.60000   0.00000   0.75000   0.20000   90.00000   0.00000   0.00050   301  250  251      5
   251   0.60000   0.00000   0.95000   0.20000   90.00000   0.00000   0.00050   311  251 -321      5
   252   0.40000   0.00000   0.35000   0.20000   90.00000 180.00000   0.00050   282  252  253      5
   253   0.40000   0.00000   0.55000   0.20000   90.00000   0.00000   0.00050   292  253  254      5
   254   0.40000   0.00000   0.75000   0.20000   90.00000   0.00000   0.00050   302  254  255      5
   255   0.40000   0.00000   0.95000   0.20000   90.00000   0.00000   0.00050   312  255 -322      5
   256   0.20000   0.00000   0.35000   0.20000   90.00000   0.00000   0.00050   283  256  257      5
   257   0.20000   0.00000   0.55000   0.20000   90.00000   0.00000   0.00050   293  257  258      5
   258   0.20000   0.00000   0.75000   0.20000   90.00000   0.00000   0.00050   303  258  259      5
   259   0.20000   0.00000   0.95000   0.20000   90.00000 180.00000   0.00050   313  259 -323      5
   260   0.00000   0.00000   0.35000   0.20000   90.00000   0.00000   0.00050   284  260  261      5
   261   0.00000   0.00000   0.55000   0.20000   90.00000   0.00000   0.00050   294  261  262      5
   262   0.00000   0.00000   0.75000   0.20000   90.00000   0.00000   0.00050   304  262  263      5
   263   0.00000   0.00000   0.95000   0.20000   90.00000 180.00000   0.00050   314  263 -324      5
   264  -0.20000   0.00000   0.35000   0.20000   90.00000 180.00000   0.00050   285  264  265      5
   265  -0.20000   0.00000   0.55000   0.20000   90.00000   0.00000   0.00050   295  265  266      5
   266  -0.20000   0.00000   0.75000   0.20000   90.00000   0.00000   0.00050   305  266  267      5
   267  -0.20000   0.00000   0.95000   0.20000   90.00000   0.00000   0.00050   315  267 -325      5
   268  -0.40000   0.00000   0.35000   0.20000   90.00000 180.00000   0.00050   286  268  269      5
   269  -0.40000   0.00000   0.55000   0.20000   90.00000   0.00000   0.00050   296  269  270      5
   270  -0.40000   0.00000   0.75000   0.20000   90.00000   0.00000   0.00050   306  270  271      5
   271  -0.40000   0.00000   0.95000   0.20000   90.00000   0.00000   0.00050   316  271 -326      5
   272  -0.60000   0.00000   0.35000   0.20000   90.00000   0.00000   0.00050   287  272  273      5
   273  -0.60000   0.00000   0.55000   0.20000   90.00000   0.00000   0.00050   297  273  274      5
   274  -0.60000   0.00000   0.75000   0.20000   90.00000   0.00000   0.00050   307  274  275      5
   275  -0.60000   0.00000   0.95000   0.20000   90.00000   0.00000   0.00050   317  275 -327      5
   276  -0.80000   0.00000   0.35000   0.20000   90.00000   0.00000   0.00050   288  276  277      5
   277  -0.80000   0.00000   0.55000   0.20000   90.00000   0.00000   0.00050   298  277  278      5
   278  -0.80000   0.00000   0.75000   0.20000   90.00000   0.00000   0.00050   308  278  279      5
   279  -0.80000   0.00000   0.95000   0.20000   90.00000 180.00000   0.00050   318  279 -328      5
   280   0.90000   0.00000   0.25000   0.20000    0.00000 180.00000   0.00050   -82  280  281      5
   281   0.70000   0.00000   0.25000   0.20000    0.00000 180.00000   0.00050  -464  281  282      5
   282   0.50000   0.00000   0.25000   0.20000    0.00000 180.00000   0.00050  -456  282  283      5
   283   0.30000   0.00000   0.25000   0.20000    0.00000 180.00000   0.00050  -448  283  284      5
   284   0.10000   0.00000   0.25000   0.20000    0.00000 180.00000   0.00050  -440  284  285      5
   285  -0.10000   0.00000   0.25000   0.20000    0.00000 180.00000   0.00050  -432  285  286      5
   286  -0.30000   0.00000   0.25000   0.20000    0.00000 180.00000   0.00050  -424  286  287      5
   287  -0.50000   0.00000   0.25000   0.20000    0.00000 180.00000   0.00050  -416  287  288      5
   288  -0.70000   0.00000   0.25000   0.20000    0.00000 180.00000   0.00050  -408  288  289      5
   289  -0.90000   0.00000   0.25000   0.20000    0.00000 180.00000   0.00050  -400  289    6      5
   290   0.90000   0.00000   0.45000   0.20000    0.00000 180.00000   0.00050    82  290  291      5
   291   0.70000   0.00000   0.45000   0.20000    0.00000 180.00000   0.00050   244  291  292      5
   292   0.50000   0.00000   0.45000   0.20000    0.00000 180.00000   0.00050   248  292  293      5
   293   0.30000   0.00000   0.45000   0.20000    0.00000 180.00000   0.00050   252  293  294      5
   294   0.10000   0.00000   0.45000   0.20000    0.00000 180.00000   0.00050   256  294  295      5
   295  -0.10000   0.00000   0.45000   0.20000    0.00000 180.00000   0.00050   260  295  296      5
   296  -0.30000   0.00000   0.45000   0.20000    0.00000 180.00000   0.00050   264  296  297      5
   297  -0.50000   0.00000   0.45000   0.20000    0.00000 180.00000   0.00050   268  297  298      5
   298  -0.70000   0.00000   0.45000   0.20000    0.00000 180.00000   0.00050   272  298  299      5
   299  -0.90000   0.00000   0.45000   0.20000    0.00000 180.00000   0.00050   276  299   -6      5
   300   0.90000   0.00000   0.65000   0.20000    0.00000 180.00000   0.00050    83  300  301      5
   301   0.70000   0.00000   0.65000   0.20000    0.00000 180.00000   0.00050   245  301  302      5
   302   0.50000   0.00000   0.65000   0.20000    0.00000 180.00000   0.00050   249  302  303      5
   303   0.30000   0.00000   0.65000   0.20000    0.00000 180.00000   0.00050   253  303  304      5
   304   0.10000   0.00000   0.65000   0.20000    0.00000 180.00000   0.00050   257  304  305      5
   305  -0.10000   0.00000   0.65000   0.20000    0.00000 180.00000   0.00050   261  305  306      5
   306  -0.30000   0.00000   0.65000   0.20000    0.00000 180.00000   0.00050   265  306  307      5
   307  -0.50000   0.00000   0.65000   0.20000    0.00000 180.00000   0.00050   269  307  308      5
   308  -0.70000   0.00000   0.65000   0.20000    0.00000 180.00000   0.00050   273  308  309      5
   309  -0.90000   0.00000   0.65000   0.20000    0.00000 180.00000   0.00050   277  309   -7      5
   310   0.90000   0.00000   0.85000   0.20000    0.00000 180.00000   0.00050    84  310  311      5
   311   0.70000   0.00000   0.85000   0.20000    0.00000 180.00000   0.00050   246  311  312      5
   312   0.50000   0.00000   0.85000   0.20000    0.00000 180.00000   0.00050   250  312  313      5
   313   0.30000   0.00000   0.85000   0.20000    0.00000 180.00000   0.00050   254  313  314      5
   314   0.10000   0.00000   0.85000   0.20000    0.00000 180.00000   0.00050   258  314  315      5
   315  -0.10000   0.00000   0.85000   0.20000    0.00000 180.00000   0.00050   262  315  316      5
   316  -0.30000   0.00000   0.85000   0.20000    0.00000 180.00000   0.00050   266  316  317      5
   317  -0.50000   0.00000   0.85000   0.20000    0.00000 180.00000   0.00050   270  317  318      5
   318  -0.70000   0.00000   0.85000   0.20000    0.00000 180.00000   0.00050   274  318  319      5
   319  -0.90000   0.00000   0.85000   0.20000    0.00000 180.00000   0.00050   278  319   -8      5
   320   0.90000   0.00000   1.05000   0.20000    0.00000 180.00000   0.00050    85  320  321      5
   321   0.70000   0.00000   1.05000   0.20000    0.00000 180.00000   0.00050   247  321  322      5
   322   0.50000   0.00000   1.05000   0.20000    0.00000 180.00000   0.00050   251  322  323      5
   323   0.30000   0.00000   1.05000   0.20000    0.00000 180.00000   0.00050   255  323  324      5
   324   0.10000   0.00000   1.05000   0.20000    0.00000 180.00000   0.00050   259  324  325      5
   325  -0.10000   0.00000   1.05000   0.20000    0.00000 180.00000   0.00050   263  325  326      5
   326  -0.30000   0.00000   1.05000   0.20000    0.00000 180.00000   0.00050   267  326  327      5
   327  -0.50000   0.00000   1.05000   0.20000    0.00000 180.00000   0.00050   271  327  328      5
   328  -0.70000   0.00000   1.05000   0.20000    0.00000 180.00000   0.00050   275  328  329      5
   329  -0.90000   0.00000   1.05000   0.20000    0.00000 180.00000   0.00050   279  329   -9      5
   330  -0.90000   0.20000   0.25000   0.20000    0.00000   0.00000   0.00050   -10  330  331      6
   331  -0.70000   0.20000   0.25000   0.20000    0.00000   0.00000   0.00050   400  331  332      6
   332  -0.50000   0.20000   0.25000   0.20000    0.00000   0.00000   0.00050   408  332  333      6
   333  -0.30000   0.20000   0.25000   0.20000    0.00000   0.00000   0.00050   416  333  334      6
   334  -0.10000   0.20000   0.25000   0.20000    0.00000   0.00000   0.00050   424  334  335      6
   335   0.10000   0.20000   0.25000   0.20000    0.00000   0.00000   0.00050   432  335  336      6
   336   0.30000   0.20000   0.25000   0.20000    0.00000   0.00000   0.00050   440  336  337      6
   337   0.50000   0.20000   0.25000   0.20000    0.00000   0.00000   0.00050   448  337  338      6
   338   0.70000   0.20000   0.25000   0.20000    0.00000   0.00000   0.00050   456  338  339      6
   339   0.90000   0.20000   0.25000   0.20000    0.00000   0.00000   0.00050   464  339   86      6
   340  -0.90000   0.40000   0.25000   0.20000    0.00000   0.00000   0.00050   -14  340  341      6
   341  -0.70000   0.40000   0.25000   0.20000    0.00000   0.00000   0.00050   401  341  342      6
   342  -0.50000   0.40000   0.25000   0.20000    0.00000   0.00000   0.00050   409  342  343      6
   343  -0.30000   0.40000   0.25000   0.20000    0.00000   0.00000   0.00050   417  343  344      6
   344  -0.10000   0.40000   0.25000   0.20000    0.00000   0.00000   0.00050   425  344  345      6
   345   0.10000   0.40000   0.25000   0.20000    0.00000   0.00000   0.00050   433  345  346      6
   346   0.30000   0.40000   0.25000   0.20000    0.00000   0.00000   0.00050   441  346  347      6
   347   0.50000   0.40000   0.25000   0.20000    0.00000   0.00000   0.00050   449  347  348      6
   348   0.70000   0.40000   0.25000   0.20000    0.00000   0.00000   0.00050   457  348  349      6
   349   0.90000   0.40000   0.25000   0.20000    0.00000   0.00000   0.00050   465  349   90      6
   350  -0.90000   0.60000   0.25000   0.20000    0.00000   0.00000   0.00050   -18  350  351      6
   351  -0.70000   0.60000   0.25000   0.20000    0.00000   0.00000   0.00050   402  351  352      6
   352  -0.50000   0.60000   0.25000   0.20000    0.00000   0.00000   0.00050   410  352  353      6
   353  -0.30000   0.60000   0.25000   0.20000    0.00000   0.00000   0.00050   418  353  354      6
   354  -0.10000   0.60000   0.25000   0.20000    0.00000   0.00000   0.00050   426  354  355      6
   355   0.10000   0.60000   0.25000   0.20000    0.00000   0.00000   0.00050   434  355  356      6
   356   0.30000   0.60000   0.25000   0.20000    0.00000   0.00000   0.00050   442  356  357      6
   357   0.50000   0.60000   0.25000   0.20000    0.00000   0.00000   0.00050   450  357  358      6
   358   0.70000   0.60000   0.25000   0.20000    0.00000   0.00000   0.00050   458  358  359      6
   359   0.90000   0.60000   0.25000   0.20000    0.00000   0.00000   0.00050   466  359   94      6
   360  -0.90000   0.80000   0.25000   0.20000    0.00000   0.00000   0.00050   -22  360  361      6
   361  -0.70000   0.80000   0.25000   0.20000    0.00000   0.00000   0.00050   403  361  362      6
   362  -0.50000   0.80000   0.25000   0.20000    0.00000   0.00000   0.00050   411  362  363      6
   363  -0.30000   0.80000   0.25000   0.20000    0.00000   0.00000   0.00050   419  363  364      6
   364  -0.10000   0.80000   0.25000   0.20000    0.00000   0.00000   0.00050   427  364  365      6
   365   0.10000   0.80000   0.25000   0.20000    0.00000   0.00000   0.00050   435  365  366      6
   366   0.30000   0.80000   0.25000   0.20000    0.00000   0.00000   0.00050   443  366  367      6
   367   0.50000   0.80000   0.25000   0.20000    0.00000   0.00000   0.00050   451  367  368      6
   368   0.70000   0.80000   0.25000   0.20000    0.00000   0.00000   0.00050   459  368  369      6
   369   0.90000   0.80000   0.25000   0.20000    0.00000   0.00000   0.00050   467  369   98      6
   370  -0.90000   1.00000   0.25000   0.20000    0.00000   0.00000   0.00050   -26  370  371      6
   371  -0.70000   1.00000   0.25000   0.20000    0.00000   0.00000   0.00050   404  371  372      6
   372  -0.50000   1.00000   0.25000   0.20000    0.00000   0.00000   0.00050   412  372  373      6
   373  -0.30000   1.00000   0.25000   0.20000    0.00000   0.00000   0.00050   420  373  374      6
   374  -0.10000   1.00000   0.25000   0.20000    0.00000   0.00000   0.00050   428  374  375      6
   375   0.10000   1.00000   0.25000   0.20000    0.00000   0.00000   0.00050   436  375  376      6
   376   0.30000   1.00000   0.25000   0.20000    0.00000   0.00000   0.00050   444  376  377      6
   377   0.50000   1.00000   0.25000   0.20000    0.00000   0.00000   0.00050   452  377  378      6
   378   0.70000   1.00000   0.25000   0.20000    0.00000   0.00000   0.00050   460  378  379      6
   379   0.90000   1.00000   0.25000   0.20000    0.00000   0.00000   0.00050   468  379  102      6
   380  -0.90000   1.20000   0.25000   0.20000    0.00000   0.00000   0.00050   -30  380  381      6
   381  -0.70000   1.20000   0.25000   0.20000    0.00000   0.00000   0.00050   405  381  382      6
   382  -0.50000   1.20000   0.25000   0.20000    0.00000   0.00000   0.00050   413  382  383      6
   383  -0.30000   1.20000   0.25000   0.20000    0.00000   0.00000   0.00050   421  383  384      6
   384  -0.10000   1.20000   0.25000   0.20000    0.00000   0.00000   0.00050   429  384  385      6
   385   0.10000   1.20000   0.25000   0.20000    0.00000   0.00000   0.00050   437  385  386      6
   386   0.30000   1.20000   0.25000   0.20000    0.00000   0.00000   0.00050   445  386  387      6
   387   0.50000   1.20000   0.25000   0.20000    0.00000   0.00000   0.00050   453  387  388      6
   388   0.70000   1.20000   0.25000   0.20000    0.00000   0.00000   0.00050   461  388  389      6
   389   0.90000   1.20000   0.25000   0.20000    0.00000   0.00000   0.00050   469  389  106      6
   390  -0.90000   1.40000   0.25000   0.20000    0.00000   0.00000   0.00050   -34  390  391      6
   391  -0.70000   1.40000   0.25000   0.20000    0.00000   0.00000   0.00050   406  391  392      6
   392  -0.50000   1.40000   0.25000   0.20000    0.00000   0.00000   0.00050   414  392  393      6
   393  -0.30000   1.40000   0.25000   0.20000    0.00000   0.00000   0.00050   422  393  394      6
   394  -0.10000   1.40000   0.25000   0.20000    0.00000   0.00000   0.00050   430  394  395      6
   395   0.10000   1.40000   0.25000   0.20000    0.00000   0.00000   0.00050   438  395  396      6
   396   0.30000   1.40000   0.25000   0.20000    0.00000   0.00000   0.00050   446  396  397      6
   397   0.50000   1.40000   0.25000   0.20000    0.00000   0.00000   0.00050   454  397  398      6
   398   0.70000   1.40000   0.25000   0.20000    0.00000   0.00000   0.00050   462  398  399      6
   399   0.90000   1.40000   0.25000   0.20000    0.00000   0.00000   0.00050   470  399  110      6
   400  -0.80000   0.10000   0.25000   0.20000    0.00000  90.00000   0.00050  -276  400  401      6
   401  -0.80000   0.30000   0.25000   0.20000    0.00000  90.00000   0.00050   330  401  402      6
   402  -0.80000   0.50000   0.25000   0.20000    0.00000  90.00000   0.00050   340  402  403      6
   403  -0.80000   0.70000   0.25000   0.20000    0.00000  90.00000   0.00050   350  403  404      6
   404  -0.80000   0.90000   0.25000   0.20000    0.00000  90.00000   0.00050   360  404  405      6
   405  -0.80000   1.10000   0.25000   0.20000    0.00000  90.00000   0.00050   370  405  406      6
   406  -0.80000   1.30000   0.25000   0.20000    0.00000  90.00000   0.00050   380  406  407      6
   407  -0.80000   1.50000   0.25000   0.20000    0.00000  90.00000   0.00050   390  407  190      6
   408  -0.60000   0.10000   0.25000   0.20000    0.00000  90.00000   0.00050  -272  408  409      6
   409  -0.60000   0.30000   0.25000   0.20000    0.00000  90.00000   0.00050   331  409  410      6
   410  -0.60000   0.50000   0.25000   0.20000    0.00000  90.00000   0.00050   341  410  411      6
   411  -0.60000   0.70000   0.25000   0.20000    0.00000  90.00000   0.00050   351  411  412      6
   412  -0.60000   0.90000   0.25000   0.20000    0.00000  90.00000   0.00050   361  412  413      6
   413  -0.60000   1.10000   0.25000   0.20000    0.00000  90.00000   0.00050   371  413  414      6
   414  -0.60000   1.30000   0.25000   0.20000    0.00000  90.00000   0.00050   381  414  415      6
   415  -0.60000   1.50000   0.25000   0.20000    0.00000  90.00000   0.00050   391  415  186      6
   416  -0.40000   0.10000   0.25000   0.20000    0.00000  90.00000   0.00050  -268  416  417      6
   417  -0.40000   0.30000   0.25000   0.20000    0.00000  90.00000   0.00050   332  417  418      6
   418  -0.40000   0.50000   0.25000   0.20000    0.00000  90.00000   0.00050   342  418  419      6
   419  -0.40000   0.70000   0.25000   0.20000    0.00000  90.00000   0.00050   352  419  420      6
   420  -0.40000   0.90000   0.25000   0.20000    0.00000  90.00000   0.00050   362  420  421      6
   421  -0.40000   1.10000   0.25000   0.20000    0.00000  90.00000   0.00050   372  421  422      6
   422  -0.40000   1.30000   0.25000   0.20000    0.00000  90.00000   0.00050   382  422  423      6
   423  -0.40000   1.50000   0.25000   0.20000    0.00000  90.00000   0.00050   392  423  182      6
   424  -0.20000   0.10000   0.25000   0.20000    0.00000  90.00000   0.00050  -264  424  425      6
   425  -0.20000   0.30000   0.25000   0.20000    0.00000  90.00000   0.00050   333  425  426      6
   426  -0.20000   0.50000   0.25000   0.20000    0.00000  90.00000   0.00050   343  426  427      6
   427  -0.20000   0.70000   0.25000   0.20000    0.00000  90.00000   0.00050   353  427  428      6
   428  -0.20000   0.90000   0.25000   0.20000    0.00000  90.00000   0.00050   363  428  429      6
   429  -0.20000   1.10000   0.25000   0.20000    0.00000  90.00000   0.00050   373  429  430      6
   430  -0.20000   1.30000   0.25000   0.20000    0.00000  90.00000   0.00050   383  430  431      6
   431  -0.20000   1.50000   0.25000   0.20000    0.00000  90.00000   0.00050   393  431  178      6
   432   0.00000   0.10000   0.25000   0.20000    0.00000  90.00000   0.00050  -260  432  433      6
   433   0.00000   0.30000   0.25000   0.20000    0.00000  90.00000   0.00050   334  433  434      6
   434   0.00000   0.50000   0.25000   0.20000    0.00000  90.00000   0.00050   344  434  435      6
   435   0.00000   0.70000   0.25000   0.20000    0.00000  90.00000   0.00050   354  435  436      6
   436   0.00000   0.90000   0.25000   0.20000    0.00000  90.00000   0.00050   364  436  437      6
   437   0.00000   1.10000   0.25000   0.20000    0.00000  90.00000   0.00050   374  437  438      6
   438   0.00000   1.30000   0.25000   0.20000    0.00000  90.00000   0.00050   384  438  439      6
   439   0.00000   1.50000   0.25000   0.20000    0.00000  90.00000   0.00050   394  439  174      6
   440   0.20000   0.10000   0.25000   0.20000    0.00000  90.00000   0.00050  -256  440  441      6
   441   0.20000   0.30000   0.25000   0.20000    0.00000  90.00000   0.00050   335  441  442      6
   442   0.20000   0.50000   0.25000   0.20000    0.00000  90.00000   0.00050   345  442  443      6
   443   0.20000   0.70000   0.25000   0.20000    0.00000  90.00000   0.00050   355  443  444      6
   444   0.20000   0.90000   0.25000   0.20000    0.00000  90.00000   0.00050   365  444  445      6
   445   0.20000   1.10000   0.25000   0.20000    0.00000  90.00000   0.00050   375  445  446      6
   446   0.20000   1.30000   0.25000   0.20000    0.00000  90.00000   0.00050   385  446  447      6
   447   0.20000   1.50000   0.25000   0.20000    0.00000  90.00000   0.00050   395  447  170      6
   448   0.40000   0.10000   0.25000   0.20000    0.00000  90.00000   0.00050  -252  448  449      6
   449   0.40000   0.30000   0.25000   0.20000    0.00000  90.00000   0.00050   336  449  450      6
   450   0.40000   0.50000   0.25000   0.20000    0.00000  90.00000   0.00050   346  450  451      6
   451   0.40000   0.70000   0.25000   0.20000    0.00000  90.00000   0.00050   356  451  452      6
   452   0.40000   0.90000   0.25000   0.20000    0.00000  90.00000   0.00050   366  452  453      6
   453   0.40000   1.10000   0.25000   0.20000    0.00000  90.00000   0.00050   376  453  454      6
   454   0.40000   1.30000   0.25000   0.20000    0.00000  90.00000   0.00050   386  454  455      6
   455   0.40000   1.50000   0.25000   0.20000    0.00000  90.00000   0.00050   396  455  166      6
   456   0.60000   0.10000   0.25000   0.20000    0.00000  90.00000   0.00050  -248  456  457      6
   457   0.60000   0.30000   0.25000   0.20000    0.00000  90.00000   0.00050   337  457  458      6
   458   0.60000   0.50000   0.25000   0.20000    0.00000  90.00000   0.00050   347  458  459      6
   459   0.60000   0.70000   0.25000   0.20000    0.00000  90.00000   0.00050   357  459  460      6
   460   0.60000   0.90000   0.25000   0.20000    0.00000  90.00000   0.00050   367  460  461      6
   461   0.60000   1.10000   0.25000   0.20000    0.00000  90.00000   0.00050   377  461  462      6
   462   0.60000   1.30000   0.25000   0.20000    0.00000  90.00000   0.00050   387  462  463      6
   463   0.60000   1.50000   0.25000   0.20000    0.00000  90.00000   0.00050   397  463  162      6
   464   0.80000   0.10000   0.25000   0.20000    0.00000  90.00000   0.00050  -244  464  465      6
   465   0.80000   0.30000   0.25000   0.20000    0.00000  90.00000   0.00050   338  465  466      6
   466   0.80000   0.50000   0.25000   0.20000    0.00000  90.00000   0.00050   348  466  467      6
   467   0.80000   0.70000   0.25000   0.20000    0.00000  90.00000   0.00050   358  467  468      6
   468   0.80000   0.90000   0.25000   0.20000    0.00000  90.00000   0.00050   368  468  469      6
   469   0.80000   1.10000   0.25000   0.20000    0.00000  90.00000   0.00050   378  469  470      6
   470   0.80000   1.30000   0.25000   0.20000    0.00000  90.00000   0.00050   388  470  471      6
   471   0.80000   1.50000   0.25000   0.20000    0.00000  90.00000   0.00050   398  471  158      6
   472  -0.90000   0.20000   1.75000   0.20000    0.00000   0.00000   0.00050  -542  472  473      7
   473  -0.70000   0.20000   1.75000   0.20000    0.00000   0.00000   0.00050  -548  473  474      7
   474  -0.50000   0.20000   1.75000   0.20000    0.00000   0.00000   0.00050  -554  474  475      7
   475  -0.30000   0.20000   1.75000   0.20000    0.00000   0.00000   0.00050  -560  475  476      7
   476  -0.10000   0.20000   1.75000   0.20000    0.00000   0.00000   0.00050  -566  476  477      7
   477   0.10000   0.20000   1.75000   0.20000    0.00000   0.00000   0.00050  -572  477  478      7
   478   0.30000   0.20000   1.75000   0.20000    0.00000   0.00000   0.00050  -578  478  479      7
   479   0.50000   0.20000   1.75000   0.20000    0.00000   0.00000   0.00050  -584  479  480      7
   480   0.70000   0.20000   1.75000   0.20000    0.00000   0.00000   0.00050  -590  480  481      7
   481   0.90000   0.20000   1.75000   0.20000    0.00000   0.00000   0.00050  -596  481  602      7
   482  -0.90000   0.40000   1.75000   0.20000    0.00000   0.00000   0.00050   542  482  483      7
   483  -0.70000   0.40000   1.75000   0.20000    0.00000   0.00000   0.00050   548  483  484      7
   484  -0.50000   0.40000   1.75000   0.20000    0.00000   0.00000   0.00050   554  484  485      7
   485  -0.30000   0.40000   1.75000   0.20000    0.00000   0.00000   0.00050   560  485  486      7
   486  -0.10000   0.40000   1.75000   0.20000    0.00000   0.00000   0.00050   566  486  487      7
   487   0.10000   0.40000   1.75000   0.20000    0.00000   0.00000   0.00050   572  487  488      7
   488   0.30000   0.40000   1.75000   0.20000    0.00000   0.00000   0.00050   578  488  489      7
   489   0.50000   0.40000   1.75000   0.20000    0.00000   0.00000   0.00050   584  489  490      7
   490   0.70000   0.40000   1.75000   0.20000    0.00000   0.00000   0.00050   590  490  491      7
   491   0.90000   0.40000   1.75000   0.20000    0.00000   0.00000   0.00050   596  491 -602      7
   492  -0.90000   0.60000   1.75000   0.20000    0.00000   0.00000   0.00050   543  492  493      7
   493  -0.70000   0.60000   1.75000   0.20000    0.00000   0.00000   0.00050   549  493  494      7
   494  -0.50000   0.60000   1.75000   0.20000    0.00000   0.00000   0.00050   555  494  495      7
   495  -0.30000   0.60000   1.75000   0.20000    0.00000   0.00000   0.00050   561  495  496      7
   496  -0.10000   0.60000   1.75000   0.20000    0.00000   0.00000   0.00050   567  496  497      7
   497   0.10000   0.60000   1.75000   0.20000    0.00000   0.00000   0.00050   573  497  498      7
   498   0.30000   0.60000   1.75000   0.20000    0.00000   0.00000   0.00050   579  498  499      7
   499   0.50000   0.60000   1.75000   0.20000    0.00000   0.00000   0.00050   585  499  500      7
   500   0.70000   0.60000   1.75000   0.20000    0.00000   0.00000   0.00050   591  500  501      7
   501   0.90000   0.60000   1.75000   0.20000    0.00000   0.00000   0.00050   597  501 -603      7
   502  -0.90000   0.80000   1.75000   0.20000    0.00000   0.00000   0.00050   544  502  503      7
   503  -0.70000   0.80000   1.75000   0.20000    0.00000   0.00000   0.00050   550  503  504      7
   504  -0.50000   0.80000   1.75000   0.20000    0.00000   0.00000   0.00050   556  504  505      7
   505  -0.30000   0.80000   1.75000   0.20000    0.00000   0.00000   0.00050   562  505  506      7
   506  -0.10000   0.80000   1.75000   0.20000    0.00000   0.00000   0.00050   568  506  507      7
   507   0.10000   0.80000   1.75000   0.20000    0.00000   0.00000   0.00050   574  507  508      7
   508   0.30000   0.80000   1.75000   0.20000    0.00000   0.00000   0.00050   580  508  509      7
   509   0.50000   0.80000   1.75000   0.20000    0.00000   0.00000   0.00050   586  509  510      7
   510   0.70000   0.80000   1.75000   0.20000    0.00000   0.00000   0.00050   592  510  511      7
   511   0.90000   0.80000   1.75000   0.20000    0.00000   0.00000   0.00050   598  511 -604      7
   512  -0.90000   1.00000   1.75000   0.20000    0.00000   0.00000   0.00050   545  512  513      7
   513  -0.70000   1.00000   1.75000   0.20000    0.00000   0.00000   0.00050   551  513  514      7
   514  -0.50000   1.00000   1.75000   0.20000    0.00000   0.00000   0.00050   557  514  515      7
   515  -0.30000   1.00000   1.75000   0.20000    0.00000   0.00000   0.00050   563  515  516      7
   516  -0.10000   1.00000   1.75000   0.20000    0.00000   0.00000   0.00050   569  516  517      7
   517   0.10000   1.00000   1.75000   0.20000    0.00000   0.00000   0.00050   575  517  518      7
   518   0.30000   1.00000   1.75000   0.20000    0.00000   0.00000   0.00050   581  518  519      7
   519   0.50000   1.00000   1.75000   0.20000    0.00000   0.00000   0.00050   587  519  520      7
   520   0.70000   1.00000   1.75000   0.20000    0.00000   0.00000   0.00050   593  520  521      7
   521   0.90000   1.00000   1.75000   0.20000    0.00000   0.00000   0.00050   599  521 -605      7
   522  -0.90000   1.20000   1.75000   0.20000    0.00000   0.00000   0.00050   546  522  523      7
   523  -0.70000   1.20000   1.75000   0.20000    0.00000   0.00000   0.00050   552  523  524      7
   524  -0.50000   1.20000   1.75000   0.20000    0.00000   0.00000   0.00050   558  524  525      7
   525  -0.30000   1.20000   1.75000   0.20000    0.00000   0.00000   0.00050   564  525  526      7
   526  -0.10000   1.20000   1.75000   0.20000    0.00000   0.00000   0.00050   570  526  527      7
   527   0.10000   1.20000   1.75000   0.20000    0.00000   0.00000   0.00050   576  527  528      7
   528   0.30000   1.20000   1.75000   0.20000    0.00000   0.00000   0.00050   582  528  529      7
   529   0.50000   1.20000   1.75000   0.20000    0.00000   0.00000   0.00050   588  529  530      7
   530   0.70000   1.20000   1.75000   0.20000    0.00000   0.00000   0.00050   594  530  531      7
   531   0.90000   1.20000   1.75000   0.20000    0.00000   0.00000   0.00050   600  531 -606      7
   532  -0.90000   1.40000   1.75000   0.20000    0.00000   0.00000   0.00050   547  532  533      7
   533  -0.70000   1.40000   1.75000   0.20000    0.00000   0.00000   0.00050   553  533  534      7
   534  -0.50000   1.40000   1.75000   0.20000    0.00000   0.00000   0.00050   559  534  535      7
   535  -0.30000   1.40000   1.75000   0.20000    0.00000   0.00000   0.00050   565  535  536      7
   536  -0.10000   1.40000   1.75000   0.20000    0.00000   0.00000   0.00050   571  536  537      7
   537   0.10000   1.40000   1.75000   0.20000    0.00000   0.00000   0.00050   577  537  538      7
   538   0.30000   1.40000   1.75000   0.20000    0.00000   0.00000   0.00050   583  538  539      7
   539   0.50000   1.40000   1.75000   0.20000    0.00000   0.00000   0.00050   589  539  540      7
   540   0.70000   1.40000   1.75000   0.20000    0.00000   0.00000   0.00050   595  540  541      7
   541   0.90000   1.40000   1.75000   0.20000    0.00000   0.00000   0.00050   601  541 -607      7
   542  -1.00000   0.30000   1.75000   0.20000    0.00000  90.00000   0.00050  -472  542  543      7
   543  -1.00000   0.50000   1.75000   0.20000    0.00000  90.00000   0.00050  -482  543  544      7
   544  -1.00000   0.70000   1.75000   0.20000    0.00000  90.00000   0.00050  -492  544  545      7
   545  -1.00000   0.90000   1.75000   0.20000    0.00000  90.00000   0.00050  -502  545  546      7
   546  -1.00000   1.10000   1.75000   0.20000    0.00000  90.00000   0.00050  -512  546  547      7
   547  -1.00000   1.30000   1.75000   0.20000    0.00000  90.00000   0.00050  -522  547  532      7
   548  -0.80000   0.30000   1.75000   0.20000    0.00000  90.00000   0.00050   472  548  549      7
   549  -0.80000   0.50000   1.75000   0.20000    0.00000  90.00000   0.00050   482  549  550      7
   550  -0.80000   0.70000   1.75000   0.20000    0.00000  90.00000   0.00050   492  550  551      7
   551  -0.80000   0.90000   1.75000   0.20000    0.00000  90.00000   0.00050   502  551  552      7
   552  -0.80000   1.10000   1.75000   0.20000    0.00000  90.00000   0.00050   512  552  553      7
   553  -0.80000   1.30000   1.75000   0.20000    0.00000  90.00000   0.00050   522  553 -532      7
   554  -0.60000   0.30000   1.75000   0.20000    0.00000  90.00000   0.00050   473  554  555      7
   555  -0.60000   0.50000   1.75000   0.20000    0.00000  90.00000   0.00050   483  555  556      7
   556  -0.60000   0.70000   1.75000   0.20000    0.00000  90.00000   0.00050   493  556  557      7
   557  -0.60000   0.90000   1.75000   0.20000    0.00000  90.00000   0.00050   503  557  558      7
   558  -0.60000   1.10000   1.75000   0.20000    0.00000  90.00000   0.00050   513  558  559      7
   559  -0.60000   1.30000   1.75000   0.20000    0.00000  90.00000   0.00050   523  559 -533      7
   560  -0.40000   0.30000   1.75000   0.20000    0.00000  90.00000   0.00050   474  560  561      7
   561  -0.40000   0.50000   1.75000   0.20000    0.00000  90.00000   0.00050   484  561  562      7
[...]
   80.00   198.00      -0.38   -9.01    0.17    0.36194    -4.56  RIGHT     9.67887E-03   101.53    3.58588E-03     0.75
   80.00   199.00      -0.50   -9.28    0.04    0.35259    -5.21  RIGHT     9.54640E-03    99.47    3.47505E-03    -3.19
   80.00   200.00      -0.63   -9.58   -0.10    0.34191    -5.88  RIGHT     9.41346E-03    97.51    3.35910E-03    -7.23
   80.00   201.00      -0.75   -9.89   -0.25    0.32981    -6.55  RIGHT     9.28072E-03    95.65    3.23852E-03   -11.37
   80.00   202.00      -0.87  -10.23   -0.40    0.31624    -7.21  RIGHT     9.14894E-03    93.90    3.11384E-03   -15.62
   80.00   203.00      -1.00  -10.60   -0.55    0.30115    -7.87  RIGHT     9.01891E-03    92.24    2.98567E-03   -20.02
   80.00   204.00      -1.12  -10.99   -0.69    0.28452    -8.50  RIGHT     8.89146E-03    90.70    2.85469E-03   -24.57
   80.00   205.00      -1.24  -11.40   -0.84    0.26635    -9.09  RIGHT     8.76745E-03    89.26    2.72168E-03   -29.29
   80.00   206.00      -1.36  -11.84   -0.99    0.24665    -9.64  RIGHT     8.64775E-03    87.92    2.58753E-03   -34.23
   80.00   207.00      -1.48  -12.31   -1.13    0.22548   -10.13  RIGHT     8.53325E-03    86.69    2.45325E-03   -39.40
   80.00   208.00      -1.59  -12.79   -1.27    0.20289   -10.56  RIGHT     8.42482E-03    85.56    2.32001E-03   -44.86
   80.00   209.00      -1.69  -13.29   -1.40    0.17900   -10.92  RIGHT     8.32332E-03    84.53    2.18914E-03   -50.63
   80.00   210.00      -1.79  -13.81   -1.53    0.15393   -11.19  RIGHT     8.22956E-03    83.59    2.06220E-03   -56.78
   80.00   211.00      -1.88  -14.34   -1.64    0.12784   -11.38  RIGHT     8.14430E-03    82.75    1.94095E-03   -63.35
   80.00   212.00      -1.96  -14.86   -1.75    0.10092   -11.47  RIGHT     8.06823E-03    81.98    1.82740E-03   -70.39
   80.00   213.00      -2.04  -15.37   -1.84    0.07338   -11.45  RIGHT     8.00193E-03    81.29    1.72378E-03   -77.95
   80.00   214.00      -2.10  -15.84   -1.92    0.04544   -11.33  RIGHT     7.94589E-03    80.67    1.63250E-03   -86.03
   80.00   215.00      -2.15  -16.26   -1.98    0.01738   -11.10  RIGHT     7.90050E-03    80.10    1.55596E-03   -94.64
   80.00   216.00      -2.19  -16.60   -2.03    0.01053   -10.76  LEFT      7.86599E-03    79.58    1.49642E-03  -103.70
   80.00   217.00      -2.21  -16.84   -2.06    0.03799   -10.30  LEFT      7.84246E-03    79.11    1.45563E-03  -113.10
   80.00   218.00      -2.23  -16.97   -2.08    0.06472    -9.73  LEFT      7.82989E-03    78.65    1.43452E-03  -122.67
   80.00   219.00      -2.23  -16.98   -2.08    0.09039    -9.05  LEFT      7.82809E-03    78.22    1.43301E-03  -132.19
   80.00   220.00      -2.22  -16.87   -2.07    0.11472    -8.26  LEFT      7.83676E-03    77.79    1.44989E-03  -141.47
   80.00   221.00      -2.20  -16.68   -2.04    0.13742    -7.38  LEFT      7.85548E-03    77.37    1.48305E-03  -150.35
   80.00   222.00      -2.17  -16.41   -2.01    0.15823    -6.41  LEFT      7.88369E-03    76.93    1.52972E-03  -158.71
   80.00   223.00      -2.12  -16.09   -1.95    0.17695    -5.37  LEFT      7.92076E-03    76.47    1.58685E-03  -166.50
   80.00   224.00      -2.08  -15.74   -1.89    0.19340    -4.27  LEFT      7.96596E-03    75.99    1.65140E-03  -173.71
   80.00   225.00      -2.02  -15.39   -1.82    0.20746    -3.14  LEFT      8.01850E-03    75.49    1.72050E-03   179.63
   80.00   226.00      -1.95  -15.04   -1.75    0.21909    -1.98  LEFT      8.07754E-03    74.94    1.79158E-03   173.48
   80.00   227.00      -1.89  -14.70   -1.66    0.22828    -0.83  LEFT      8.14222E-03    74.36    1.86239E-03   167.79
   80.00   228.00      -1.81  -14.38   -1.58    0.23509     0.31  LEFT      8.21166E-03    73.75    1.93096E-03   162.50
   80.00   229.00      -1.73  -14.10   -1.49    0.23961     1.41  LEFT      8.28497E-03    73.09    1.99562E-03   157.56
   80.00   230.00      -1.65  -13.84   -1.40    0.24200     2.46  LEFT      8.36130E-03    72.39    2.05493E-03   152.93
   80.00   231.00      -1.57  -13.62   -1.31    0.24241     3.44  LEFT      8.43978E-03    71.65    2.10768E-03   148.55
   80.00   232.00      -1.49  -13.44   -1.22    0.24101     4.35  LEFT      8.51961E-03    70.87    2.15282E-03   144.41
   80.00   233.00      -1.41  -13.29   -1.14    0.23799     5.18  LEFT      8.60001E-03    70.06    2.18947E-03   140.45
   80.00   234.00      -1.33  -13.19   -1.06    0.23350     5.92  LEFT      8.68025E-03    69.21    2.21691E-03   136.67
   80.00   235.00      -1.25  -13.12   -0.98    0.22772     6.57  LEFT      8.75965E-03    68.34    2.23453E-03   133.01
   80.00   236.00      -1.17  -13.09   -0.90    0.22078     7.13  LEFT      8.83757E-03    67.43    2.24186E-03   129.47
   80.00   237.00      -1.10  -13.10   -0.83    0.21281     7.61  LEFT      8.91342E-03    66.50    2.23852E-03   126.01
   80.00   238.00      -1.03  -13.16   -0.77    0.20391     8.00  LEFT      8.98668E-03    65.54    2.22427E-03   122.62
   80.00   239.00      -0.96  -13.26   -0.71    0.19417     8.30  LEFT      9.05684E-03    64.57    2.19896E-03   119.27
   80.00   240.00      -0.90  -13.40   -0.66    0.18367     8.53  LEFT      9.12348E-03    63.59    2.16258E-03   115.93
   80.00   241.00      -0.84  -13.59   -0.61    0.17246     8.68  LEFT      9.18621E-03    62.59    2.11522E-03   112.58
   80.00   242.00      -0.78  -13.84   -0.57    0.16057     8.76  LEFT      9.24467E-03    61.59    2.05710E-03   109.17
   80.00   243.00      -0.73  -14.13   -0.54    0.14805     8.78  LEFT      9.29855E-03    60.58    1.98861E-03   105.69
   80.00   244.00      -0.69  -14.48   -0.51    0.13492     8.73  LEFT      9.34760E-03    59.57    1.91027E-03   102.06
   80.00   245.00      -0.65  -14.89   -0.48    0.12118     8.62  LEFT      9.39157E-03    58.57    1.82284E-03    98.25
   80.00   246.00      -0.61  -15.35   -0.47    0.10686     8.46  LEFT      9.43027E-03    57.58    1.72728E-03    94.18
   80.00   247.00      -0.58  -15.88   -0.45    0.09196     8.25  LEFT      9.46352E-03    56.59    1.62494E-03    89.74
   80.00   248.00      -0.55  -16.48   -0.44    0.07648     7.99  LEFT      9.49119E-03    55.63    1.51755E-03    84.82
   80.00   249.00      -0.53  -17.13   -0.44    0.06043     7.69  LEFT      9.51315E-03    54.68    1.40748E-03    79.25
   80.00   250.00      -0.52  -17.84   -0.44    0.04381     7.35  LEFT      9.52932E-03    53.75    1.29795E-03    72.83
   80.00   251.00      -0.51  -18.56   -0.44    0.02663     6.97  LEFT      9.53962E-03    52.84    1.19335E-03    65.32
   80.00   252.00      -0.51  -19.28   -0.45    0.00890     6.55  LEFT      9.54399E-03    51.96    1.09962E-03    56.45
   80.00   253.00      -0.51  -19.89   -0.46    0.00938     6.10  RIGHT     9.54241E-03    51.11    1.02444E-03    46.04
   80.00   254.00      -0.51  -20.30   -0.47    0.02818     5.62  RIGHT     9.53487E-03    50.29    9.76729E-04    34.16
   80.00   255.00      -0.53  -20.41   -0.48    0.04749     5.12  RIGHT     9.52135E-03    49.51    9.64865E-04    21.32
   80.00   256.00      -0.54  -20.15   -0.50    0.06729     4.58  RIGHT     9.50187E-03    48.76    9.93821E-04     8.41
   80.00   257.00      -0.57  -19.57   -0.51    0.08754     4.01  RIGHT     9.47646E-03    48.05    1.06319E-03    -3.59
   80.00   258.00      -0.60  -18.75   -0.53    0.10823     3.42  RIGHT     9.44516E-03    47.38    1.16791E-03   -14.06
   80.00   259.00      -0.63  -17.82   -0.55    0.12931     2.81  RIGHT     9.40803E-03    46.76    1.30089E-03   -22.85
   80.00   260.00      -0.67  -16.84   -0.57    0.15073     2.16  RIGHT     9.36512E-03    46.18    1.45516E-03   -30.10
   80.00   261.00      -0.72  -15.88   -0.59    0.17246     1.49  RIGHT     9.31653E-03    45.64    1.62489E-03   -36.04
   80.00   262.00      -0.77  -14.97   -0.60    0.19444     0.79  RIGHT     9.26233E-03    45.16    1.80552E-03   -40.94
   80.00   263.00      -0.82  -14.11   -0.62    0.21662     0.06  RIGHT     9.20263E-03    44.72    1.99350E-03   -45.01
   80.00   264.00      -0.88  -13.31   -0.64    0.23893    -0.70  RIGHT     9.13754E-03    44.34    2.18606E-03   -48.41
   80.00   265.00      -0.95  -12.57   -0.66    0.26131    -1.49  RIGHT     9.06718E-03    44.00    2.38096E-03   -51.29
   80.00   266.00      -1.02  -11.88   -0.68    0.28368    -2.32  RIGHT     8.99169E-03    43.72    2.57636E-03   -53.74
   80.00   267.00      -1.10  -11.25   -0.70    0.30596    -3.18  RIGHT     8.91119E-03    43.50    2.77071E-03   -55.83
   80.00   268.00      -1.19  -10.67   -0.72    0.32808    -4.09  RIGHT     8.82584E-03    43.32    2.96264E-03   -57.62
   80.00   269.00      -1.27  -10.13   -0.74    0.34994    -5.04  RIGHT     8.73580E-03    43.21    3.15098E-03   -59.16
   80.00   270.00      -1.37   -9.64   -0.77    0.37146    -6.03  RIGHT     8.64123E-03    43.15    3.33463E-03   -60.49
   80.00   271.00      -1.47   -9.19   -0.79    0.39252    -7.08  RIGHT     8.54230E-03    43.14    3.51265E-03   -61.62
   80.00   272.00      -1.57   -8.77   -0.82    0.41304    -8.18  RIGHT     8.43918E-03    43.20    3.68415E-03   -62.59
   80.00   273.00      -1.69   -8.39   -0.85    0.43290    -9.33  RIGHT     8.33205E-03    43.31    3.84834E-03   -63.41
   80.00   274.00      -1.80   -8.05   -0.88    0.45198   -10.55  RIGHT     8.22109E-03    43.47    4.00450E-03   -64.10
   80.00   275.00      -1.92   -7.74   -0.91    0.47019   -11.82  RIGHT     8.10650E-03    43.70    4.15198E-03   -64.67
   80.00   276.00      -2.05   -7.45   -0.95    0.48741   -13.15  RIGHT     7.98844E-03    43.98    4.29020E-03   -65.13
   80.00   277.00      -2.18   -7.19   -0.99    0.50352   -14.54  RIGHT     7.86710E-03    44.33    4.41863E-03   -65.49
   80.00   278.00      -2.32   -6.97   -1.04    0.51841   -15.99  RIGHT     7.74268E-03    44.73    4.53682E-03   -65.76
   80.00   279.00      -2.47   -6.76   -1.09    0.53200   -17.50  RIGHT     7.61533E-03    45.19    4.64439E-03   -65.94
   80.00   280.00      -2.62   -6.58   -1.15    0.54420   -19.05  RIGHT     7.48525E-03    45.71    4.74099E-03   -66.04
   80.00   281.00      -2.77   -6.43   -1.22    0.55491   -20.63  RIGHT     7.35259E-03    46.29    4.82637E-03   -66.07
   80.00   282.00      -2.93   -6.30   -1.29    0.56411   -22.25  RIGHT     7.21753E-03    46.93    4.90032E-03   -66.02
   80.00   283.00      -3.10   -6.19   -1.36    0.57173   -23.87  RIGHT     7.08022E-03    47.63    4.96269E-03   -65.91
   80.00   284.00      -3.27   -6.10   -1.45    0.57777   -25.50  RIGHT     6.94081E-03    48.39    5.01339E-03   -65.74
   80.00   285.00      -3.45   -6.03   -1.54    0.58223   -27.12  RIGHT     6.79943E-03    49.22    5.05240E-03   -65.51
   80.00   286.00      -3.64   -5.98   -1.64    0.58514   -28.70  RIGHT     6.65623E-03    50.11    5.07973E-03   -65.22
   80.00   287.00      -3.83   -5.96   -1.75    0.58653   -30.25  RIGHT     6.51132E-03    51.07    5.09548E-03   -64.89
   80.00   288.00      -4.02   -5.95   -1.87    0.58645   -31.74  RIGHT     6.36482E-03    52.09    5.09977E-03   -64.50
   80.00   289.00      -4.23   -5.96   -2.00    0.58498   -33.16  RIGHT     6.21684E-03    53.18    5.09278E-03   -64.07
   80.00   290.00      -4.44   -5.99   -2.14    0.58217   -34.51  RIGHT     6.06747E-03    54.34    5.07476E-03   -63.59
   80.00   291.00      -4.66   -6.04   -2.28    0.57810   -35.78  RIGHT     5.91681E-03    55.58    5.04598E-03   -63.07
   80.00   292.00      -4.88   -6.11   -2.44    0.57281   -36.96  RIGHT     5.76494E-03    56.89    5.00675E-03   -62.51
   80.00   293.00      -5.12   -6.20   -2.61    0.56635   -38.06  RIGHT     5.61194E-03    58.29    4.95745E-03   -61.92
   80.00   294.00      -5.36   -6.30   -2.79    0.55878   -39.07  RIGHT     5.45789E-03    59.77    4.89846E-03   -61.29
   80.00   295.00      -5.61   -6.42   -2.99    0.55010   -39.99  RIGHT     5.30288E-03    61.34    4.83021E-03   -60.63
   80.00   296.00      -5.87   -6.56   -3.19    0.54034   -40.83  RIGHT     5.14700E-03    63.01    4.75316E-03   -59.95
   80.00   297.00      -6.14   -6.72   -3.41    0.52947   -41.59  RIGHT     4.99034E-03    64.78    4.66781E-03   -59.23
   80.00   298.00      -6.42   -6.89   -3.64    0.51747   -42.27  RIGHT     4.83301E-03    66.66    4.57465E-03   -58.50
   80.00   299.00      -6.70   -7.09   -3.88    0.50431   -42.88  RIGHT     4.67515E-03    68.67    4.47420E-03   -57.73
   80.00   300.00      -7.00   -7.30   -4.14    0.48991   -43.42  RIGHT     4.51693E-03    70.80    4.36701E-03   -56.95
   80.00   301.00      -7.31   -7.53   -4.41    0.47421   -43.90  RIGHT     4.35855E-03    73.08    4.25363E-03   -56.16
   80.00   302.00      -7.63   -7.77   -4.69    0.45710   -44.31  RIGHT     4.20026E-03    75.52    4.13461E-03   -55.34
   80.00   303.00      -7.97   -8.04   -4.99    0.43847   -44.67  RIGHT     4.04238E-03    78.13    4.01051E-03   -54.51
   80.00   304.00      -8.31   -8.32   -5.31    0.41818   -44.96  RIGHT     3.88532E-03    80.94    3.88187E-03   -53.67
   80.00   305.00      -8.67   -8.62   -5.63    0.39609   -45.21  RIGHT     3.72957E-03    83.96    3.74925E-03   -52.82
   80.00   306.00      -9.03   -8.94   -5.98    0.37202   -45.39  RIGHT     3.57576E-03    87.22    3.61320E-03   -51.96
   80.00   307.00      -9.41   -9.28   -6.33    0.34578   -45.52  RIGHT     3.42468E-03    90.75    3.47422E-03   -51.10
   80.00   308.00      -9.79   -9.64   -6.71    0.31716   -45.59  RIGHT     3.27727E-03    94.57    3.33283E-03   -50.23
   80.00   309.00     -10.18  -10.03   -7.09    0.28593   -45.58  RIGHT     3.13473E-03    98.73    3.18952E-03   -49.35
   80.00   310.00     -10.56  -10.43   -7.48    0.25186   -45.50  RIGHT     2.99849E-03   103.25    3.04476E-03   -48.48
   80.00   311.00     -10.94  -10.86   -7.89    0.21471   -45.31  RIGHT     2.87026E-03   108.17    2.89896E-03   -47.60
   80.00   312.00     -11.31  -11.31   -8.30    0.17424   -45.01  RIGHT     2.75208E-03   113.51    2.75255E-03   -46.72
   80.00   313.00     -11.65  -11.78   -8.70    0.13028   -44.54  RIGHT     2.64627E-03   119.31    2.60590E-03   -45.84
   80.00   314.00     -11.95  -12.28   -9.10    0.08274   -43.89  RIGHT     2.55544E-03   125.57    2.45936E-03   -44.96
   80.00   315.00     -12.20  -12.82   -9.49    0.03170   -42.98  RIGHT     2.48236E-03   132.27    2.31321E-03   -44.09
   80.00   316.00     -12.39  -13.38   -9.85    0.02244   -41.73  LEFT      2.42979E-03   139.38    2.16775E-03   -43.21
   80.00   317.00     -12.50  -13.98  -10.16    0.07876   -40.07  LEFT      2.40028E-03   146.81    2.02319E-03   -42.33
   80.00   318.00     -12.51  -14.62  -10.43    0.13555   -37.85  LEFT      2.39586E-03   154.46    1.87974E-03   -41.45
   80.00   319.00     -12.43  -15.30  -10.62    0.18995   -34.98  LEFT      2.41782E-03   162.20    1.73754E-03   -40.56
   80.00   320.00     -12.26  -16.04  -10.74    0.23776   -31.36  LEFT      2.46655E-03   169.89    1.59674E-03   -39.67
   80.00   321.00     -12.00  -16.83  -10.76    0.27382   -27.03  LEFT      2.54153E-03   177.41    1.45740E-03   -38.77
   80.00   322.00     -11.66  -17.69  -10.70    0.29340   -22.23  LEFT      2.64141E-03  -175.34    1.31958E-03   -37.85
   80.00   323.00     -11.27  -18.64  -10.54    0.29435   -17.40  LEFT      2.76428E-03  -168.42    1.18332E-03   -36.91
   80.00   324.00     -10.83  -19.69  -10.30    0.27836   -12.97  LEFT      2.90789E-03  -161.88    1.04859E-03   -35.93
   80.00   325.00     -10.36  -20.87   -9.99    0.24991    -9.26  LEFT      3.06983E-03  -155.71    9.15386E-04   -34.91
   80.00   326.00      -9.87  -22.22   -9.62    0.21418    -6.35  LEFT      3.24775E-03  -149.90    7.83648E-04   -33.81
   80.00   327.00      -9.37  -23.80   -9.22    0.17543    -4.17  LEFT      3.43942E-03  -144.44    6.53318E-04   -32.61
   80.00   328.00      -8.87  -25.71   -8.78    0.13657    -2.60  LEFT      3.64280E-03  -139.29    5.24331E-04   -31.23
   80.00   329.00      -8.38  -28.13   -8.33    0.09933    -1.53  LEFT      3.85603E-03  -134.41    3.96632E-04   -29.50
   80.00   330.00      -7.89  -31.47   -7.87    0.06461    -0.85  LEFT      4.07744E-03  -129.77    2.70225E-04   -26.96
   80.00   331.00      -7.42  -36.85   -7.41    0.03281    -0.46  LEFT      4.30556E-03  -125.35    1.45450E-04   -21.59
   80.00   332.00      -6.96  -50.38   -6.96    0.00403    -0.31  LEFT      4.53904E-03  -121.11    3.06126E-05    22.25
   80.00   333.00      -6.52  -39.43   -6.52    0.02182    -0.34  RIGHT     4.77669E-03  -117.02    1.08057E-04   137.69
   80.00   334.00      -6.09  -32.88   -6.08    0.04488    -0.52  RIGHT     5.01741E-03  -113.07    2.29698E-04   145.60
   80.00   335.00      -5.68  -29.18   -5.66    0.06536    -0.80  RIGHT     5.26023E-03  -109.24    3.51625E-04   148.72
   80.00   336.00      -5.29  -26.60   -5.25    0.08346    -1.18  RIGHT     5.50422E-03  -105.51    4.73072E-04   150.78
   80.00   337.00      -4.91  -24.63   -4.86    0.09938    -1.62  RIGHT     5.74856E-03  -101.86    5.93909E-04   152.45
   80.00   338.00      -4.55  -23.03   -4.49    0.11332    -2.11  RIGHT     5.99247E-03   -98.28    7.14082E-04   153.95
   80.00   339.00      -4.20  -21.68   -4.13    0.12546    -2.64  RIGHT     6.23524E-03   -94.77    8.33538E-04   155.36
   80.00   340.00      -3.87  -20.53   -3.78    0.13595    -3.21  RIGHT     6.47619E-03   -91.30    9.52209E-04   156.74
   80.00   341.00      -3.56  -19.51   -3.45    0.14494    -3.79  RIGHT     6.71471E-03   -87.88    1.07001E-03   158.10
   80.00   342.00      -3.26  -18.61   -3.14    0.15256    -4.39  RIGHT     6.95021E-03   -84.50    1.18683E-03   159.46
   80.00   343.00      -2.98  -17.80   -2.83    0.15893    -4.99  RIGHT     7.18217E-03   -81.16    1.30253E-03   160.83
   80.00   344.00      -2.70  -17.07   -2.55    0.16415    -5.60  RIGHT     7.41008E-03   -77.83    1.41697E-03   162.21
   80.00   345.00      -2.45  -16.41   -2.27    0.16831    -6.21  RIGHT     7.63349E-03   -74.54    1.52996E-03   163.61
   80.00   346.00      -2.20  -15.80   -2.01    0.17149    -6.82  RIGHT     7.85197E-03   -71.26    1.64131E-03   165.03
   80.00   347.00      -1.97  -15.24   -1.77    0.17377    -7.42  RIGHT     8.06513E-03   -67.99    1.75080E-03   166.46
   80.00   348.00      -1.75  -14.72   -1.53    0.17521    -8.01  RIGHT     8.27263E-03   -64.74    1.85822E-03   167.91
   80.00   349.00      -1.54  -14.24   -1.31    0.17587    -8.58  RIGHT     8.47415E-03   -61.51    1.96333E-03   169.37
   80.00   350.00      -1.34  -13.80   -1.10    0.17580    -9.15  RIGHT     8.66940E-03   -58.28    2.06586E-03   170.85
   80.00   351.00      -1.15  -13.39   -0.90    0.17504    -9.69  RIGHT     8.85815E-03   -55.06    2.16557E-03   172.35
   80.00   352.00      -0.98  -13.01   -0.71    0.17363   -10.22  RIGHT     9.04017E-03   -51.85    2.26220E-03   173.85
   80.00   353.00      -0.81  -12.66   -0.54    0.17161   -10.74  RIGHT     9.21528E-03   -48.65    2.35549E-03   175.36
   80.00   354.00      -0.65  -12.33   -0.37    0.16902   -11.23  RIGHT     9.38334E-03   -45.45    2.44517E-03   176.88
   80.00   355.00      -0.51  -12.03   -0.21    0.16587   -11.70  RIGHT     9.54422E-03   -42.26    2.53100E-03   178.40
   80.00   356.00      -0.37  -11.76   -0.06    0.16220   -12.15  RIGHT     9.69784E-03   -39.08    2.61273E-03   179.91
   80.00   357.00      -0.24  -11.50    0.08    0.15803   -12.58  RIGHT     9.84413E-03   -35.90    2.69012E-03  -178.58
   80.00   358.00      -0.11  -11.27    0.21    0.15338   -12.98  RIGHT     9.98307E-03   -32.73    2.76296E-03  -177.07
   80.00   359.00       0.00  -11.06    0.33    0.14827   -13.37  RIGHT     1.01147E-02   -29.56    2.83106E-03  -175.58






 ***** DATA CARD NO. 13   EN   0     1   360  1000  8.00000E+01  0.00000E+00  0.00000E+00  1.00000E+00  0.00000E+00  0.00000E+00

 RUN TIME =     2.453
