1



                                 *********************************************

                                    NUMERICAL ELECTROMAGNETICS CODE (NEC-2D)

                                 *********************************************




                                     - - - - COMMENTS - - - -


                          No comments specified                                                      
                                                                                                     




                                 - - - STRUCTURE SPECIFICATION - - -

                                     COORDINATES MUST BE INPUT IN
                                     METERS OR BE SCALED TO METERS
                                     BEFORE STRUCTURE INPUT IS ENDED


  WIRE                                                                               NO. OF    FIRST  LAST     TAG
  NO.        X1         Y1         Z1          X2         Y2         Z2      RADIUS   SEG.     SEG.   SEG.     NO.
     1    0.10700    0.00000    0.18700     0.10500    0.01800    0.18700    0.00196      1        1     1       1
     2    0.10500    0.01800    0.18700     0.10000    0.03600    0.18700    0.00196      1        2     2       1
     3    0.10000    0.03600    0.18700     0.09300    0.05300    0.18700    0.00196      1        3     3       1
     4    0.09300    0.05300    0.18700     0.08200    0.06800    0.18700    0.00196      1        4     4       1
     5    0.08200    0.06800    0.18700     0.07000    0.08100    0.18700    0.00196      1        5     5       1
     6    0.07000    0.08100    0.18700     0.05500    0.09100    0.18700    0.00196      1        6     6       1
     7    0.05500    0.09100    0.18700     0.03800    0.09900    0.18700    0.00196      1        7     7       1
     8    0.03800    0.09900    0.18700     0.02100    0.10500    0.18700    0.00196      1        8     8       1
     9    0.02100    0.10500    0.18700     0.00300    0.10700    0.18700    0.00196      1        9     9       1
    10    0.00300    0.10700    0.18700    -0.01600    0.10500    0.18700    0.00196      1       10    10       1
    11   -0.01600    0.10500    0.18700    -0.03300    0.10100    0.18700    0.00196      1       11    11       1
    12   -0.03300    0.10100    0.18700    -0.05000    0.09400    0.18700    0.00196      1       12    12       1
    13   -0.05000    0.09400    0.18700    -0.06600    0.08400    0.18700    0.00196      1       13    13       1
    14   -0.06600    0.08400    0.18700    -0.07900    0.07200    0.18700    0.00196      1       14    14       1
    15   -0.07900    0.07200    0.18700    -0.09000    0.05700    0.18700    0.00196      1       15    15       1
    16   -0.09000    0.05700    0.18700    -0.09900    0.04100    0.18700    0.00196      1       16    16       1
    17   -0.09900    0.04100    0.18700    -0.10400    0.02300    0.18700    0.00196      1       17    17       1
    18   -0.10400    0.02300    0.18700    -0.10700    0.00500    0.18700    0.00196      1       18    18       1
    19   -0.10700    0.00500    0.18700    -0.10600   -0.01300    0.18700    0.00196      1       19    19       1
    20   -0.10600   -0.01300    0.18700    -0.10200   -0.03100    0.18700    0.00196      1       20    20       1
    21   -0.10200   -0.03100    0.18700    -0.09500   -0.04800    0.18700    0.00196      1       21    21       1
    22   -0.09500   -0.04800    0.18700    -0.08600   -0.06400    0.18700    0.00196      1       22    22       1
    23   -0.08600   -0.06400    0.18700    -0.07400   -0.07700    0.18700    0.00196      1       23    23       1
    24   -0.07400   -0.07700    0.18700    -0.05900   -0.08900    0.18700    0.00196      1       24    24       1
    25   -0.05900   -0.08900    0.18700    -0.04300   -0.09700    0.18700    0.00196      1       25    25       1
    26   -0.04300   -0.09700    0.18700    -0.02600   -0.10300    0.18700    0.00196      1       26    26       1
    27   -0.02600   -0.10300    0.18700    -0.00800   -0.10600    0.18700    0.00196      1       27    27       1
    28   -0.00800   -0.10600    0.18700     0.01000   -0.10600    0.18700    0.00196      1       28    28       1
    29    0.01000   -0.10600    0.18700     0.02800   -0.10300    0.18700    0.00196      1       29    29       1
    30    0.02800   -0.10300    0.18700     0.04600   -0.09600    0.18700    0.00196      1       30    30       1
    31    0.04600   -0.09600    0.18700     0.06100   -0.08700    0.18700    0.00196      1       31    31       1
    32    0.06100   -0.08700    0.18700     0.07500   -0.07500    0.18700    0.00196      1       32    32       1
    33    0.07500   -0.07500    0.18700     0.08700   -0.06100    0.18700    0.00196      1       33    33       1
    34    0.08700   -0.06100    0.18700     0.09600   -0.04600    0.18700    0.00196      1       34    34       1
    35    0.09600   -0.04600    0.18700     0.10300   -0.02800    0.18700    0.00196      1       35    35       1
    36    0.10300   -0.02800    0.18700     0.10600   -0.01000    0.18700    0.00196      1       36    36     999
    37    0.10700    0.00000    0.00000     0.10500    0.01800    0.00000    0.00196      1       37    37       2
    38    0.10500    0.01800    0.00000     0.10000    0.03600    0.00000    0.00196      1       38    38       2
    39    0.10000    0.03600    0.00000     0.09300    0.05300    0.00000    0.00196      1       39    39       2
    40    0.09300    0.05300    0.00000     0.08200    0.06800    0.00000    0.00196      1       40    40       2
    41    0.08200    0.06800    0.00000     0.07000    0.08100    0.00000    0.00196      1       41    41       2
    42    0.07000    0.08100    0.00000     0.05500    0.09100    0.00000    0.00196      1       42    42       2
    43    0.05500    0.09100    0.00000     0.03800    0.09900    0.00000    0.00196      1       43    43       2
    44    0.03800    0.09900    0.00000     0.02100    0.10500    0.00000    0.00196      1       44    44       2
    45    0.02100    0.10500    0.00000     0.00300    0.10700    0.00000    0.00196      1       45    45       2
    46    0.00300    0.10700    0.00000    -0.01600    0.10500    0.00000    0.00196      1       46    46       2
    47   -0.01600    0.10500    0.00000    -0.03300    0.10100    0.00000    0.00196      1       47    47       2
    48   -0.03300    0.10100    0.00000    -0.05000    0.09400    0.00000    0.00196      1       48    48       2
    49   -0.05000    0.09400    0.00000    -0.06600    0.08400    0.00000    0.00196      1       49    49       2
    50   -0.06600    0.08400    0.00000    -0.07900    0.07200    0.00000    0.00196      1       50    50       2
    51   -0.07900    0.07200    0.00000    -0.09000    0.05700    0.00000    0.00196      1       51    51       2
    52   -0.09000    0.05700    0.00000    -0.09900    0.04100    0.00000    0.00196      1       52    52       2
    53   -0.09900    0.04100    0.00000    -0.10400    0.02300    0.00000    0.00196      1       53    53       2
    54   -0.10400    0.02300    0.00000    -0.10700    0.00500    0.00000    0.00196      1       54    54       2
    55   -0.10700    0.00500    0.00000    -0.10600   -0.01300    0.00000    0.00196      1       55    55       2
    56   -0.10600   -0.01300    0.00000    -0.10200   -0.03100    0.00000    0.00196      1       56    56       2
    57   -0.10200   -0.03100    0.00000    -0.09500   -0.04800    0.00000    0.00196      1       57    57       2
    58   -0.09500   -0.04800    0.00000    -0.08600   -0.06400    0.00000    0.00196      1       58    58       2
    59   -0.08600   -0.06400    0.00000    -0.07400   -0.07700    0.00000    0.00196      1       59    59       2
    60   -0.07400   -0.07700    0.00000    -0.05900   -0.08900    0.00000    0.00196      1       60    60       2
    61   -0.05900   -0.08900    0.00000    -0.04300   -0.09700    0.00000    0.00196      1       61    61       2
    62   -0.04300   -0.09700    0.00000    -0.02600   -0.10300    0.00000    0.00196      1       62    62       2
    63   -0.02600   -0.10300    0.00000    -0.00800   -0.10600    0.00000    0.00196      1       63    63       2
    64   -0.00800   -0.10600    0.00000     0.01000   -0.10600    0.00000    0.00196      1       64    64       2
    65    0.01000   -0.10600    0.00000     0.02800   -0.10300    0.00000    0.00196      1       65    65       2
    66    0.02800   -0.10300    0.00000     0.04600   -0.09600    0.00000    0.00196      1       66    66       2
    67    0.04600   -0.09600    0.00000     0.06100   -0.08700    0.00000    0.00196      1       67    67       2
    68    0.06100   -0.08700    0.00000     0.07500   -0.07500    0.00000    0.00196      1       68    68       2
    69    0.07500   -0.07500    0.00000     0.08700   -0.06100    0.00000    0.00196      1       69    69       2
    70    0.08700   -0.06100    0.00000     0.09600   -0.04600    0.00000    0.00196      1       70    70       2
    71    0.09600   -0.04600    0.00000     0.10300   -0.02800    0.00000    0.00196      1       71    71       2
    72    0.10300   -0.02800    0.00000     0.10600   -0.01000    0.00000    0.00196      1       72    72       2
    73    0.10700    0.00000    0.00000     0.10700    0.00000    0.18700    0.00196      4       73    76       3
    74    0.10600   -0.01000    0.00000     0.10600   -0.01000    0.18700    0.00196      4       77    80       4
      THE STRUCTURE HAS BEEN MOVED, MOVE DATA CARD IS -
        0    0   0.00000   0.00000   0.00000   0.00000   0.00000   8.00000   0.00000

   GROUND PLANE SPECIFIED.

   TOTAL SEGMENTS USED=   80     NO. SEG. IN A SYMMETRIC CELL=   80     SYMMETRY FLAG=  0


         - MULTIPLE WIRE JUNCTIONS -
 JUNCTION    SEGMENTS  (- FOR END 1, + FOR END 2)
  NONE




                                 - - - - SEGMENTATION DATA - - - -

                                        COORDINATES IN METERS

                         I+ AND I- INDICATE THE SEGMENTS BEFORE AND AFTER I


  SEG.   COORDINATES OF SEG. CENTER     SEG.     ORIENTATION ANGLES    WIRE    CONNECTION DATA   TAG
  NO.       X         Y         Z       LENGTH     ALPHA     BETA      RADIUS    I-   I    I+    NO.
     1   0.10600   0.00900   8.18700   0.01811    0.00000  96.34019   0.00196    76    1    2      1
     2   0.10250   0.02700   8.18700   0.01868    0.00000 105.52411   0.00196     1    2    3      1
     3   0.09650   0.04450   8.18700   0.01838    0.00000 112.38014   0.00196     2    3    4      1
     4   0.08750   0.06050   8.18700   0.01860    0.00000 126.25384   0.00196     3    4    5      1
     5   0.07600   0.07450   8.18700   0.01769    0.00000 132.70939   0.00196     4    5    6      1
     6   0.06250   0.08600   8.18700   0.01803    0.00000 146.30993   0.00196     5    6    7      1
     7   0.04650   0.09500   8.18700   0.01879    0.00000 154.79888   0.00196     6    7    8      1
     8   0.02950   0.10200   8.18700   0.01803    0.00000 160.55997   0.00196     7    8    9      1
     9   0.01200   0.10600   8.18700   0.01811    0.00000 173.65981   0.00196     8    9   10      1
    10  -0.00650   0.10600   8.18700   0.01910    0.00000-173.99099   0.00196     9   10   11      1
    11  -0.02450   0.10300   8.18700   0.01746    0.00000-166.75948   0.00196    10   11   12      1
    12  -0.04150   0.09750   8.18700   0.01838    0.00000-157.61986   0.00196    11   12   13      1
    13  -0.05800   0.08900   8.18700   0.01887    0.00000-147.99462   0.00196    12   13   14      1
    14  -0.07250   0.07800   8.18700   0.01769    0.00000-137.29061   0.00196    13   14   15      1
    15  -0.08450   0.06450   8.18700   0.01860    0.00000-126.25384   0.00196    14   15   16      1
    16  -0.09450   0.04900   8.18700   0.01836    0.00000-119.35775   0.00196    15   16   17      1
    17  -0.10150   0.03200   8.18700   0.01868    0.00000-105.52411   0.00196    16   17   18      1
    18  -0.10550   0.01400   8.18700   0.01825    0.00000 -99.46232   0.00196    17   18   19      1
    19  -0.10650  -0.00400   8.18700   0.01803    0.00000 -86.82017   0.00196    18   19   20      1
    20  -0.10400  -0.02200   8.18700   0.01844    0.00000 -77.47119   0.00196    19   20   21      1
    21  -0.09850  -0.03950   8.18700   0.01838    0.00000 -67.61986   0.00196    20   21   22      1
    22  -0.09050  -0.05600   8.18700   0.01836    0.00000 -60.64225   0.00196    21   22   23      1
    23  -0.08000  -0.07050   8.18700   0.01769    0.00000 -47.29061   0.00196    22   23   24      1
    24  -0.06650  -0.08300   8.18700   0.01921    0.00000 -38.65981   0.00196    23   24   25      1
    25  -0.05100  -0.09300   8.18700   0.01789    0.00000 -26.56505   0.00196    24   25   26      1
    26  -0.03450  -0.10000   8.18700   0.01803    0.00000 -19.44003   0.00196    25   26   27      1
    27  -0.01700  -0.10450   8.18700   0.01825    0.00000  -9.46232   0.00196    26   27   28      1
    28   0.00100  -0.10600   8.18700   0.01800    0.00000   0.00000   0.00196    27   28   29      1
    29   0.01900  -0.10450   8.18700   0.01825    0.00000   9.46232   0.00196    28   29   30      1
    30   0.03700  -0.09950   8.18700   0.01931    0.00000  21.25051   0.00196    29   30   31      1
    31   0.05350  -0.09150   8.18700   0.01749    0.00000  30.96376   0.00196    30   31   32      1
    32   0.06800  -0.08100   8.18700   0.01844    0.00000  40.60129   0.00196    31   32   33      1
    33   0.08100  -0.06800   8.18700   0.01844    0.00000  49.39871   0.00196    32   33   34      1
    34   0.09150  -0.05350   8.18700   0.01749    0.00000  59.03624   0.00196    33   34   35      1
    35   0.09950  -0.03700   8.18700   0.01931    0.00000  68.74949   0.00196    34   35   36      1
    36   0.10450  -0.01900   8.18700   0.01825    0.00000  80.53768   0.00196    35   36  -80    999
    37   0.10600   0.00900   8.00000   0.01811    0.00000  96.34019   0.00196   -73   37   38      2
    38   0.10250   0.02700   8.00000   0.01868    0.00000 105.52411   0.00196    37   38   39      2
    39   0.09650   0.04450   8.00000   0.01838    0.00000 112.38014   0.00196    38   39   40      2
    40   0.08750   0.06050   8.00000   0.01860    0.00000 126.25384   0.00196    39   40   41      2
    41   0.07600   0.07450   8.00000   0.01769    0.00000 132.70939   0.00196    40   41   42      2
    42   0.06250   0.08600   8.00000   0.01803    0.00000 146.30993   0.00196    41   42   43      2
    43   0.04650   0.09500   8.00000   0.01879    0.00000 154.79888   0.00196    42   43   44      2
    44   0.02950   0.10200   8.00000   0.01803    0.00000 160.55997   0.00196    43   44   45      2
    45   0.01200   0.10600   8.00000   0.01811    0.00000 173.65981   0.00196    44   45   46      2
    46  -0.00650   0.10600   8.00000   0.01910    0.00000-173.99099   0.00196    45   46   47      2
    47  -0.02450   0.10300   8.00000   0.01746    0.00000-166.75948   0.00196    46   47   48      2
    48  -0.04150   0.09750   8.00000   0.01838    0.00000-157.61986   0.00196    47   48   49      2
    49  -0.05800   0.08900   8.00000   0.01887    0.00000-147.99462   0.00196    48   49   50      2
    50  -0.07250   0.07800   8.00000   0.01769    0.00000-137.29061   0.00196    49   50   51      2
    51  -0.08450   0.06450   8.00000   0.01860    0.00000-126.25384   0.00196    50   51   52      2
    52  -0.09450   0.04900   8.00000   0.01836    0.00000-119.35775   0.00196    51   52   53      2
    53  -0.10150   0.03200   8.00000   0.01868    0.00000-105.52411   0.00196    52   53   54      2
    54  -0.10550   0.01400   8.00000   0.01825    0.00000 -99.46232   0.00196    53   54   55      2
    55  -0.10650  -0.00400   8.00000   0.01803    0.00000 -86.82017   0.00196    54   55   56      2
    56  -0.10400  -0.02200   8.00000   0.01844    0.00000 -77.47119   0.00196    55   56   57      2
    57  -0.09850  -0.03950   8.00000   0.01838    0.00000 -67.61986   0.00196    56   57   58      2
    58  -0.09050  -0.05600   8.00000   0.01836    0.00000 -60.64225   0.00196    57   58   59      2
    59  -0.08000  -0.07050   8.00000   0.01769    0.00000 -47.29061   0.00196    58   59   60      2
    60  -0.06650  -0.08300   8.00000   0.01921    0.00000 -38.65981   0.00196    59   60   61      2
    61  -0.05100  -0.09300   8.00000   0.01789    0.00000 -26.56505   0.00196    60   61   62      2
    62  -0.03450  -0.10000   8.00000   0.01803    0.00000 -19.44003   0.00196    61   62   63      2
    63  -0.01700  -0.10450   8.00000   0.01825    0.00000  -9.46232   0.00196    62   63   64      2
    64   0.00100  -0.10600   8.00000   0.01800    0.00000   0.00000   0.00196    63   64   65      2
    65   0.01900  -0.10450   8.00000   0.01825    0.00000   9.46232   0.00196    64   65   66      2
    66   0.03700  -0.09950   8.00000   0.01931    0.00000  21.25051   0.00196    65   66   67      2
    67   0.05350  -0.09150   8.00000   0.01749    0.00000  30.96376   0.00196    66   67   68      2
    68   0.06800  -0.08100   8.00000   0.01844    0.00000  40.60129   0.00196    67   68   69      2
    69   0.08100  -0.06800   8.00000   0.01844    0.00000  49.39871   0.00196    68   69   70      2
    70   0.09150  -0.05350   8.00000   0.01749    0.00000  59.03624   0.00196    69   70   71      2
    71   0.09950  -0.03700   8.00000   0.01931    0.00000  68.74949   0.00196    70   71   72      2
    72   0.10450  -0.01900   8.00000   0.01825    0.00000  80.53768   0.00196    71   72   77      2
    73   0.10700   0.00000   8.02337   0.04675   90.00000   0.00000   0.00196   -37   73   74      3
    74   0.10700   0.00000   8.07013   0.04675   90.00000   0.00000   0.00196    73   74   75      3
    75   0.10700   0.00000   8.11688   0.04675   90.00000   0.00000   0.00196    74   75   76      3
    76   0.10700   0.00000   8.16362   0.04675   90.00000   0.00000   0.00196    75   76    1      3
    77   0.10600  -0.01000   8.02337   0.04675   90.00000   0.00000   0.00196    72   77   78      4
    78   0.10600  -0.01000   8.07013   0.04675   90.00000   0.00000   0.00196    77   78   79      4
    79   0.10600  -0.01000   8.11688   0.04675   90.00000   0.00000   0.00196    78   79   80      4
    80   0.10600  -0.01000   8.16362   0.04675   90.00000   0.00000   0.00196    79   80  -36      4






 ***** DATA CARD NO.  1   GN   2     0     0     0  1.10000E+01  1.00000E-02  0.00000E+00  0.00000E+00  0.00000E+00  0.00000E+00
 ***** DATA CARD NO.  2   EK   0     0     0     0  0.00000E+00  0.00000E+00  0.00000E+00  0.00000E+00  0.00000E+00  0.00000E+00
 ***** DATA CARD NO.  3   LD   5     0     0     0  5.80000E+07  0.00000E+00  0.00000E+00  0.00000E+00  0.00000E+00  0.00000E+00
 ***** DATA CARD NO.  4   EX   0   999     1     0  1.00000E+00  0.00000E+00  0.00000E+00  0.00000E+00  0.00000E+00  0.00000E+00
 ***** DATA CARD NO.  5   FR   0     1     0     0  1.44200E+02  0.00000E+00  0.00000E+00  0.00000E+00  0.00000E+00  0.00000E+00
 ***** DATA CARD NO.  6   RP   0     1     1  1000  8.50000E+01  9.00000E+01  0.00000E+00  0.00000E+00  0.00000E+00  0.00000E+00




                                 - - - - - - FREQUENCY - - - - - -

                                    FREQUENCY= 1.4420E+02 MHZ
                                    WAVELENGTH= 2.0791E+00 METERS




                    APPROXIMATE INTEGRATION EMPLOYED FOR SEGMENTS MORE THAN   1.000 WAVELENGTHS APART

                    THE EXTENDED THIN WIRE KERNEL WILL BE USED



                               - - - STRUCTURE IMPEDANCE LOADING - - -


       LOCATION          RESISTANCE   INDUCTANCE  CAPACITANCE       IMPEDANCE (OHMS)     CONDUCTIVITY    TYPE
    ITAG FROM THRU          OHMS        HENRYS       FARADS        REAL      IMAGINARY    MHOS/METER

     ALL                                                                                 5.8000E+07     WIRE  



                                  - - - ANTENNA ENVIRONMENT - - -

                                        FINITE GROUND.  SOMMERFELD SOLUTION
                                        RELATIVE DIELECTRIC CONST.= 11.000
                                        CONDUCTIVITY= 1.000E-02 MHOS/METER
                                        COMPLEX DIELECTRIC CONSTANT= 1.10000E+01-1.24660E+00



                                - - - MATRIX TIMING - - -

                        FILL=    0.031 SEC.,  FACTOR=    0.000 SEC.



                                          - - - ANTENNA INPUT PARAMETERS - - -

   TAG   SEG.    VOLTAGE (VOLTS)         CURRENT (AMPS)         IMPEDANCE (OHMS)        ADMITTANCE (MHOS)      POWER
   NO.   NO.    REAL        IMAG.       REAL        IMAG.       REAL        IMAG.       REAL        IMAG.     (WATTS)
   999    36 1.00000E+00 0.00000E+00 3.19029E-02 8.09228E-03 2.94503E+01-7.47016E+00 3.19029E-02 8.09228E-03 1.59515E-02



                             - - - CURRENTS AND LOCATION - - -

                                 DISTANCES IN WAVELENGTHS


  SEG.  TAG    COORD. OF SEG. CENTER     SEG.            - - - CURRENT (AMPS) - - -
  NO.   NO.     X        Y        Z      LENGTH     REAL        IMAG.       MAG.        PHASE
     1    1   0.0510   0.0043   3.9378  0.00871   3.1563E-02  2.5189E-03  3.1664E-02    4.563
     2    1   0.0493   0.0130   3.9378  0.00899   3.5080E-02  3.1633E-03  3.5223E-02    5.153
     3    1   0.0464   0.0214   3.9378  0.00884   3.8012E-02  3.7099E-03  3.8192E-02    5.574
     4    1   0.0421   0.0291   3.9378  0.00895   4.0611E-02  4.2041E-03  4.0828E-02    5.910
     5    1   0.0366   0.0358   3.9378  0.00851   4.2924E-02  4.6533E-03  4.3175E-02    6.187
     6    1   0.0301   0.0414   3.9378  0.00867   4.5002E-02  5.0667E-03  4.5287E-02    6.424
     7    1   0.0224   0.0457   3.9378  0.00904   4.6962E-02  5.4674E-03  4.7279E-02    6.641
     8    1   0.0142   0.0491   3.9378  0.00867   4.8745E-02  5.8448E-03  4.9094E-02    6.837
     9    1   0.0058   0.0510   3.9378  0.00871   5.0331E-02  6.1940E-03  5.0711E-02    7.016
    10    1  -0.0031   0.0510   3.9378  0.00919   5.1799E-02  6.5335E-03  5.2209E-02    7.189
    11    1  -0.0118   0.0495   3.9378  0.00840   5.3080E-02  6.8484E-03  5.3520E-02    7.352
    12    1  -0.0200   0.0469   3.9378  0.00884   5.4182E-02  7.1399E-03  5.4650E-02    7.507
    13    1  -0.0279   0.0428   3.9378  0.00908   5.5166E-02  7.4253E-03  5.5664E-02    7.666
    14    1  -0.0349   0.0375   3.9378  0.00851   5.5973E-02  7.6885E-03  5.6498E-02    7.821
    15    1  -0.0406   0.0310   3.9378  0.00895   5.6617E-02  7.9336E-03  5.7170E-02    7.977
    16    1  -0.0455   0.0236   3.9378  0.00883   5.7112E-02  8.1666E-03  5.7693E-02    8.138
    17    1  -0.0488   0.0154   3.9378  0.00899   5.7446E-02  8.3836E-03  5.8055E-02    8.303
    18    1  -0.0507   0.0067   3.9378  0.00878   5.7617E-02  8.5830E-03  5.8252E-02    8.473
    19    1  -0.0512  -0.0019   3.9378  0.00867   5.7626E-02  8.7623E-03  5.8288E-02    8.646
    20    1  -0.0500  -0.0106   3.9378  0.00887   5.7478E-02  8.9252E-03  5.8166E-02    8.826
    21    1  -0.0474  -0.0190   3.9378  0.00884   5.7167E-02  9.0714E-03  5.7882E-02    9.017
    22    1  -0.0435  -0.0269   3.9378  0.00883   5.6697E-02  9.1981E-03  5.7438E-02    9.215
    23    1  -0.0385  -0.0339   3.9378  0.00851   5.6080E-02  9.3032E-03  5.6846E-02    9.419
    24    1  -0.0320  -0.0399   3.9378  0.00924   5.5288E-02  9.3893E-03  5.6080E-02    9.638
    25    1  -0.0245  -0.0447   3.9378  0.00860   5.4329E-02  9.4529E-03  5.5146E-02    9.870
    26    1  -0.0166  -0.0481   3.9378  0.00867   5.3246E-02  9.4907E-03  5.4085E-02   10.106
    27    1  -0.0082  -0.0503   3.9378  0.00878   5.1995E-02  9.5042E-03  5.2857E-02   10.359
    28    1   0.0005  -0.0510   3.9378  0.00866   5.0588E-02  9.4912E-03  5.1471E-02   10.626
    29    1   0.0091  -0.0503   3.9378  0.00878   4.9021E-02  9.4502E-03  4.9924E-02   10.912
    30    1   0.0178  -0.0479   3.9378  0.00929   4.7224E-02  9.3760E-03  4.8145E-02   11.230
    31    1   0.0257  -0.0440   3.9378  0.00841   4.5284E-02  9.2695E-03  4.6223E-02   11.568
    32    1   0.0327  -0.0390   3.9378  0.00887   4.3208E-02  9.1307E-03  4.4163E-02   11.932
    33    1   0.0390  -0.0327   3.9378  0.00887   4.0871E-02  8.9496E-03  4.1840E-02   12.351
    34    1   0.0440  -0.0257   3.9378  0.00841   3.8358E-02  8.7319E-03  3.9339E-02   12.824
    35    1   0.0479  -0.0178   3.9378  0.00929   3.5469E-02  8.4676E-03  3.6465E-02   13.427
    36  999   0.0503  -0.0091   3.9378  0.00878   3.1903E-02  8.0923E-03  3.2913E-02   14.233
    37    2   0.0510   0.0043   3.8479  0.00871   3.1893E-02  8.8829E-03  3.3107E-02   15.564
    38    2   0.0493   0.0130   3.8479  0.00899   3.5399E-02  9.4492E-03  3.6638E-02   14.946
    39    2   0.0464   0.0214   3.8479  0.00884   3.8317E-02  9.8865E-03  3.9572E-02   14.468
    40    2   0.0421   0.0291   3.8479  0.00895   4.0902E-02  1.0246E-02  4.2166E-02   14.064
    41    2   0.0366   0.0358   3.8479  0.00851   4.3200E-02  1.0542E-02  4.4468E-02   13.714
    42    2   0.0301   0.0414   3.8479  0.00867   4.5263E-02  1.0786E-02  4.6530E-02   13.403
    43    2   0.0224   0.0457   3.8479  0.00904   4.7205E-02  1.0993E-02  4.8468E-02   13.109
    44    2   0.0142   0.0491   3.8479  0.00867   4.8970E-02  1.1158E-02  5.0226E-02   12.836
    45    2   0.0058   0.0510   3.8479  0.00871   5.0538E-02  1.1283E-02  5.1782E-02   12.585
    46    2  -0.0031   0.0510   3.8479  0.00919   5.1986E-02  1.1375E-02  5.3216E-02   12.342
    47    2  -0.0118   0.0495   3.8479  0.00840   5.3247E-02  1.1432E-02  5.4460E-02   12.117
    48    2  -0.0200   0.0469   3.8479  0.00884   5.4329E-02  1.1457E-02  5.5523E-02   11.908
    49    2  -0.0279   0.0428   3.8479  0.00908   5.5291E-02  1.1452E-02  5.6465E-02   11.702
    50    2  -0.0349   0.0375   3.8479  0.00851   5.6076E-02  1.1418E-02  5.7227E-02   11.509
    51    2  -0.0406   0.0310   3.8479  0.00895   5.6698E-02  1.1357E-02  5.7825E-02   11.327
    52    2  -0.0455   0.0236   3.8479  0.00883   5.7171E-02  1.1269E-02  5.8271E-02   11.150
    53    2  -0.0488   0.0154   3.8479  0.00899   5.7482E-02  1.1154E-02  5.8554E-02   10.981
    54    2  -0.0507   0.0067   3.8479  0.00878   5.7629E-02  1.1014E-02  5.8672E-02   10.820
    55    2  -0.0512  -0.0019   3.8479  0.00867   5.7615E-02  1.0854E-02  5.8629E-02   10.669
    56    2  -0.0500  -0.0106   3.8479  0.00887   5.7444E-02  1.0669E-02  5.8426E-02   10.522
    57    2  -0.0474  -0.0190   3.8479  0.00884   5.7110E-02  1.0460E-02  5.8060E-02   10.379
    58    2  -0.0435  -0.0269   3.8479  0.00883   5.6617E-02  1.0228E-02  5.7533E-02   10.240
    59    2  -0.0385  -0.0339   3.8479  0.00851   5.5977E-02  9.9783E-03  5.6860E-02   10.107
    60    2  -0.0320  -0.0399   3.8479  0.00924   5.5163E-02  9.6999E-03  5.6009E-02    9.973
    61    2  -0.0245  -0.0447   3.8479  0.00860   5.4182E-02  9.3965E-03  5.4991E-02    9.839
    62    2  -0.0166  -0.0481   3.8479  0.00867   5.3077E-02  9.0799E-03  5.3848E-02    9.708
    63    2  -0.0082  -0.0503   3.8479  0.00878   5.1806E-02  8.7369E-03  5.2538E-02    9.573
    64    2   0.0005  -0.0510   3.8479  0.00866   5.0379E-02  8.3701E-03  5.1070E-02    9.433
    65    2   0.0091  -0.0503   3.8479  0.00878   4.8793E-02  7.9784E-03  4.9441E-02    9.287
    66    2   0.0178  -0.0479   3.8479  0.00929   4.6976E-02  7.5450E-03  4.7578E-02    9.125
    67    2   0.0257  -0.0440   3.8479  0.00841   4.5019E-02  7.0914E-03  4.5574E-02    8.952
    68    2   0.0327  -0.0390   3.8479  0.00887   4.2927E-02  6.6186E-03  4.3434E-02    8.765
    69    2   0.0390  -0.0327   3.8479  0.00887   4.0574E-02  6.0989E-03  4.1029E-02    8.549
    70    2   0.0440  -0.0257   3.8479  0.00841   3.8046E-02  5.5529E-03  3.8449E-02    8.304
    71    2   0.0479  -0.0178   3.8479  0.00929   3.5143E-02  4.9406E-03  3.5489E-02    8.002
    72    2   0.0503  -0.0091   3.8479  0.00878   3.1566E-02  4.2108E-03  3.1846E-02    7.598
    73    3   0.0515   0.0000   3.8591  0.02249  -2.2788E-02 -7.2887E-03  2.3925E-02 -162.263
    74    3   0.0515   0.0000   3.8816  0.02249  -7.8552E-03 -4.6264E-03  9.1163E-03 -149.503
    75    3   0.0515   0.0000   3.9041  0.02249   7.5039E-03 -1.8556E-03  7.7299E-03  -13.890
    76    3   0.0515   0.0000   3.9266  0.02249   2.2446E-02  8.6275E-04  2.2462E-02    2.201
    77    4   0.0510  -0.0048   3.8591  0.02249   2.2434E-02  2.4383E-03  2.2566E-02    6.203
    78    4   0.0510  -0.0048   3.8816  0.02249   7.4977E-03 -4.3416E-04  7.5103E-03   -3.314
    79    4   0.0510  -0.0048   3.9041  0.02249  -7.8560E-03 -3.3844E-03  8.5540E-03 -156.693
    80    4   0.0510  -0.0048   3.9266  0.02249  -2.2784E-02 -6.2859E-03  2.3635E-02 -164.576



                                        - - - POWER BUDGET - - -

                                           INPUT POWER   = 1.5951E-02 WATTS
                                           RADIATED POWER= 1.5513E-02 WATTS
                                           STRUCTURE LOSS= 4.3842E-04 WATTS
                                           NETWORK LOSS  = 0.0000E+00 WATTS
                                           EFFICIENCY    =  97.25 PERCENT



                                                - - - RADIATION PATTERNS - - -

  - - ANGLES - -           - POWER GAINS -       - - - POLARIZATION - - -    - - - E(THETA) - - -    - - - E(PHI) - - -
  THETA     PHI        VERT.   HOR.    TOTAL      AXIAL     TILT   SENSE     MAGNITUDE    PHASE      MAGNITUDE    PHASE 
 DEGREES  DEGREES       DB      DB      DB        RATIO     DEG.              VOLTS/M    DEGREES      VOLTS/M    DEGREES
   85.00    90.00     -23.05    4.23    4.24    0.01318    87.64  RIGHT     6.88382E-02   116.42    1.59227E+00    98.64






 ***** DATA CARD NO.  7   EN   0     1     1  1000  8.50000E+01  9.00000E+01  0.00000E+00  0.00000E+00  0.00000E+00  0.00000E+00

 RUN TIME =     0.094
