1



                                 *********************************************

                                    NUMERICAL ELECTROMAGNETICS CODE (NEC-2D)

                                 *********************************************




                                     - - - - COMMENTS - - - -


                          No comments specified                                                      
                                                                                                     




                                 - - - STRUCTURE SPECIFICATION - - -

                                     COORDINATES MUST BE INPUT IN
                                     METERS OR BE SCALED TO METERS
                                     BEFORE STRUCTURE INPUT IS ENDED


  WIRE                                                                               NO. OF    FIRST  LAST     TAG
  NO.        X1         Y1         Z1          X2         Y2         Z2      RADIUS   SEG.     SEG.   SEG.     NO.
     1   -2.25000    0.00000    0.00000    -0.10700    0.00000    0.00000    0.00500      4        1     4       1
     2   -0.10700    0.00000    0.00000     0.42900    0.00000    0.00000    0.00500      1        5     5     999
     3    0.42900    0.00000    0.00000     2.25000    0.00000    0.00000    0.00500      4        6     9       1
     4   -2.25000   -0.60000   -0.60000    -2.25000   -0.60000    0.60000    0.00050      6       10    15       2
     5   -2.25000   -0.40000   -0.60000    -2.25000   -0.40000    0.60000    0.00050      6       16    21       2
     6   -2.25000   -0.20000   -0.60000    -2.25000   -0.20000    0.60000    0.00050      6       22    27       2
     7   -2.25000    0.00000   -0.60000    -2.25000    0.00000    0.60000    0.00050      6       28    33       2
     8   -2.25000    0.20000   -0.60000    -2.25000    0.20000    0.60000    0.00050      6       34    39       2
     9   -2.25000    0.40000   -0.60000    -2.25000    0.40000    0.60000    0.00050      6       40    45       2
    10   -2.25000    0.60000   -0.60000    -2.25000    0.60000    0.60000    0.00050      6       46    51       2
    11   -2.25000   -0.60000   -0.60000    -2.25000    0.60000   -0.60000    0.00050      6       52    57       2
    12   -2.25000   -0.60000   -0.40000    -2.25000    0.60000   -0.40000    0.00050      6       58    63       2
    13   -2.25000   -0.60000   -0.20000    -2.25000    0.60000   -0.20000    0.00050      6       64    69       2
    14   -2.25000   -0.60000    0.00000    -2.25000    0.60000    0.00000    0.00050      6       70    75       2
    15   -2.25000   -0.60000    0.20000    -2.25000    0.60000    0.20000    0.00050      6       76    81       2
    16   -2.25000   -0.60000    0.40000    -2.25000    0.60000    0.40000    0.00050      6       82    87       2
    17   -2.25000   -0.60000    0.60000    -2.25000    0.60000    0.60000    0.00050      6       88    93       2
    18    2.25000   -0.60000   -0.60000     2.25000   -0.60000    0.60000    0.00050      6       94    99       3
    19    2.25000   -0.40000   -0.60000     2.25000   -0.40000    0.60000    0.00050      6      100   105       3
    20    2.25000   -0.20000   -0.60000     2.25000   -0.20000    0.60000    0.00050      6      106   111       3
    21    2.25000    0.00000   -0.60000     2.25000    0.00000    0.60000    0.00050      6      112   117       3
    22    2.25000    0.20000   -0.60000     2.25000    0.20000    0.60000    0.00050      6      118   123       3
    23    2.25000    0.40000   -0.60000     2.25000    0.40000    0.60000    0.00050      6      124   129       3
    24    2.25000    0.60000   -0.60000     2.25000    0.60000    0.60000    0.00050      6      130   135       3
    25    2.25000   -0.60000   -0.60000     2.25000    0.60000   -0.60000    0.00050      6      136   141       3
    26    2.25000   -0.60000   -0.40000     2.25000    0.60000   -0.40000    0.00050      6      142   147       3
    27    2.25000   -0.60000   -0.20000     2.25000    0.60000   -0.20000    0.00050      6      148   153       3
    28    2.25000   -0.60000    0.00000     2.25000    0.60000    0.00000    0.00050      6      154   159       3
    29    2.25000   -0.60000    0.20000     2.25000    0.60000    0.20000    0.00050      6      160   165       3
    30    2.25000   -0.60000    0.40000     2.25000    0.60000    0.40000    0.00050      6      166   171       3
    31    2.25000   -0.60000    0.60000     2.25000    0.60000    0.60000    0.00050      6      172   177       3
      THE STRUCTURE HAS BEEN MOVED, MOVE DATA CARD IS -
        0    0   0.00000   0.00000   0.00000   0.00000   0.00000   8.00000   0.00000

   GROUND PLANE SPECIFIED.

   TOTAL SEGMENTS USED=  177     NO. SEG. IN A SYMMETRIC CELL=  177     SYMMETRY FLAG=  0


         - MULTIPLE WIRE JUNCTIONS -
 JUNCTION    SEGMENTS  (- FOR END 1, + FOR END 2)
     1        -1   30  -31   72  -73
     2         9  114 -115  156 -157
     3        10  -11  -58
     4        11  -12  -64
     5        12  -13  -70
     6        13  -14  -76
     7        14  -15  -82
     8       -16   52  -53
     9        16  -17   58  -59
    10        17  -18   64  -65
    11        18  -19   70  -71
    12        19  -20   76  -77
    13        20  -21   82  -83
    14        21   88  -89
    15       -22   53  -54
    16        22  -23   59  -60
    17        23  -24   65  -66
    18        24  -25   71  -72
    19        25  -26   77  -78
    20        26  -27   83  -84
    21        27   89  -90
    22       -28   54  -55
    23        28  -29   60  -61
    24        29  -30   66  -67
    25        31  -32   78  -79
    26        32  -33   84  -85
    27        33   90  -91
    28       -34   55  -56
    29        34  -35   61  -62
    30        35  -36   67  -68
    31        36  -37   73  -74
    32        37  -38   79  -80
    33        38  -39   85  -86
    34        39   91  -92
    35       -40   56  -57
    36        40  -41   62  -63
    37        41  -42   68  -69
    38        42  -43   74  -75
    39        43  -44   80  -81
    40        44  -45   86  -87
    41        45   92  -93
    42        46  -47   63
    43        47  -48   69
    44        48  -49   75
    45        49  -50   81
    46        50  -51   87
    47        94  -95 -142
    48        95  -96 -148
    49        96  -97 -154
    50        97  -98 -160
    51        98  -99 -166
    52      -100  136 -137
    53       100 -101  142 -143
    54       101 -102  148 -149
    55       102 -103  154 -155
    56       103 -104  160 -161
    57       104 -105  166 -167
    58       105  172 -173
    59      -106  137 -138
    60       106 -107  143 -144
    61       107 -108  149 -150
    62       108 -109  155 -156
    63       109 -110  161 -162
    64       110 -111  167 -168
    65       111  173 -174
    66      -112  138 -139
    67       112 -113  144 -145
    68       113 -114  150 -151
    69       115 -116  162 -163
    70       116 -117  168 -169
    71       117  174 -175
    72      -118  139 -140
    73       118 -119  145 -146
    74       119 -120  151 -152
    75       120 -121  157 -158
    76       121 -122  163 -164
    77       122 -123  169 -170
    78       123  175 -176
    79      -124  140 -141
    80       124 -125  146 -147
    81       125 -126  152 -153
    82       126 -127  158 -159
    83       127 -128  164 -165
    84       128 -129  170 -171
    85       129  176 -177
    86       130 -131  147
    87       131 -132  153
    88       132 -133  159
    89       133 -134  165
    90       134 -135  171




                                 - - - - SEGMENTATION DATA - - - -

                                        COORDINATES IN METERS

                         I+ AND I- INDICATE THE SEGMENTS BEFORE AND AFTER I


  SEG.   COORDINATES OF SEG. CENTER     SEG.     ORIENTATION ANGLES    WIRE    CONNECTION DATA   TAG
  NO.       X         Y         Z       LENGTH     ALPHA     BETA      RADIUS    I-   I    I+    NO.
     1  -1.98212   0.00000   8.00000   0.53575    0.00000   0.00000   0.00500    30    1    2      1
     2  -1.44638   0.00000   8.00000   0.53575    0.00000   0.00000   0.00500     1    2    3      1
     3  -0.91063   0.00000   8.00000   0.53575    0.00000   0.00000   0.00500     2    3    4      1
     4  -0.37488   0.00000   8.00000   0.53575    0.00000   0.00000   0.00500     3    4    5      1
     5   0.16100   0.00000   8.00000   0.53600    0.00000   0.00000   0.00500     4    5    6    999
     6   0.65663   0.00000   8.00000   0.45525    0.00000   0.00000   0.00500     5    6    7      1
     7   1.11187   0.00000   8.00000   0.45525    0.00000   0.00000   0.00500     6    7    8      1
     8   1.56712   0.00000   8.00000   0.45525    0.00000   0.00000   0.00500     7    8    9      1
     9   2.02238   0.00000   8.00000   0.45525    0.00000   0.00000   0.00500     8    9 -114      1
    10  -2.25000  -0.60000   7.50000   0.20000   90.00000   0.00000   0.00050   -52   10   11      2
    11  -2.25000  -0.60000   7.70000   0.20000   90.00000   0.00000   0.00050   -58   11   12      2
    12  -2.25000  -0.60000   7.90000   0.20000   90.00000   0.00000   0.00050   -64   12   13      2
    13  -2.25000  -0.60000   8.10000   0.20000   90.00000   0.00000   0.00050   -70   13   14      2
    14  -2.25000  -0.60000   8.30000   0.20000   90.00000   0.00000   0.00050   -76   14   15      2
    15  -2.25000  -0.60000   8.50000   0.20000   90.00000   0.00000   0.00050   -82   15   88      2
    16  -2.25000  -0.40000   7.50000   0.20000   90.00000  90.00000   0.00050    52   16   17      2
    17  -2.25000  -0.40000   7.70000   0.20000   90.00000   0.00000   0.00050    58   17   18      2
    18  -2.25000  -0.40000   7.90000   0.20000   90.00000   0.00000   0.00050    64   18   19      2
    19  -2.25000  -0.40000   8.10000   0.20000   90.00000   0.00000   0.00050    70   19   20      2
    20  -2.25000  -0.40000   8.30000   0.20000   90.00000   0.00000   0.00050    76   20   21      2
    21  -2.25000  -0.40000   8.50000   0.20000   90.00000 -90.00000   0.00050    82   21  -88      2
    22  -2.25000  -0.20000   7.50000   0.20000   90.00000  90.00000   0.00050    53   22   23      2
    23  -2.25000  -0.20000   7.70000   0.20000   90.00000   0.00000   0.00050    59   23   24      2
    24  -2.25000  -0.20000   7.90000   0.20000   90.00000   0.00000   0.00050    65   24   25      2
    25  -2.25000  -0.20000   8.10000   0.20000   90.00000   0.00000   0.00050    71   25   26      2
    26  -2.25000  -0.20000   8.30000   0.20000   90.00000   0.00000   0.00050    77   26   27      2
    27  -2.25000  -0.20000   8.50000   0.20000   90.00000 -90.00000   0.00050    83   27  -89      2
    28  -2.25000   0.00000   7.50000   0.20000   90.00000  90.00000   0.00050    54   28   29      2
    29  -2.25000   0.00000   7.70000   0.20000   90.00000   0.00000   0.00050    60   29   30      2
    30  -2.25000   0.00000   7.90000   0.20000   90.00000  90.00000   0.00050    66   30   31      2
    31  -2.25000   0.00000   8.10000   0.20000   90.00000 -90.00000   0.00050    72   31   32      2
    32  -2.25000   0.00000   8.30000   0.20000   90.00000   0.00000   0.00050    78   32   33      2
    33  -2.25000   0.00000   8.50000   0.20000   90.00000 -90.00000   0.00050    84   33  -90      2
    34  -2.25000   0.20000   7.50000   0.20000   90.00000  90.00000   0.00050    55   34   35      2
    35  -2.25000   0.20000   7.70000   0.20000   90.00000   0.00000   0.00050    61   35   36      2
    36  -2.25000   0.20000   7.90000   0.20000   90.00000   0.00000   0.00050    67   36   37      2
    37  -2.25000   0.20000   8.10000   0.20000   90.00000   0.00000   0.00050    73   37   38      2
    38  -2.25000   0.20000   8.30000   0.20000   90.00000   0.00000   0.00050    79   38   39      2
    39  -2.25000   0.20000   8.50000   0.20000   90.00000 -90.00000   0.00050    85   39  -91      2
    40  -2.25000   0.40000   7.50000   0.20000   90.00000  90.00000   0.00050    56   40   41      2
    41  -2.25000   0.40000   7.70000   0.20000   90.00000   0.00000   0.00050    62   41   42      2
    42  -2.25000   0.40000   7.90000   0.20000   90.00000   0.00000   0.00050    68   42   43      2
    43  -2.25000   0.40000   8.10000   0.20000   90.00000   0.00000   0.00050    74   43   44      2
    44  -2.25000   0.40000   8.30000   0.20000   90.00000   0.00000   0.00050    80   44   45      2
    45  -2.25000   0.40000   8.50000   0.20000   90.00000 -90.00000   0.00050    86   45  -92      2
    46  -2.25000   0.60000   7.50000   0.20000   90.00000   0.00000   0.00050    57   46   47      2
    47  -2.25000   0.60000   7.70000   0.20000   90.00000   0.00000   0.00050    63   47   48      2
    48  -2.25000   0.60000   7.90000   0.20000   90.00000   0.00000   0.00050    69   48   49      2
    49  -2.25000   0.60000   8.10000   0.20000   90.00000   0.00000   0.00050    75   49   50      2
    50  -2.25000   0.60000   8.30000   0.20000   90.00000   0.00000   0.00050    81   50   51      2
    51  -2.25000   0.60000   8.50000   0.20000   90.00000   0.00000   0.00050    87   51  -93      2
    52  -2.25000  -0.50000   7.40000   0.20000    0.00000  90.00000   0.00050   -10   52   53      2
    53  -2.25000  -0.30000   7.40000   0.20000    0.00000  90.00000   0.00050   -16   53   54      2
    54  -2.25000  -0.10000   7.40000   0.20000    0.00000  90.00000   0.00050   -22   54   55      2
    55  -2.25000   0.10000   7.40000   0.20000    0.00000  90.00000   0.00050   -28   55   56      2
    56  -2.25000   0.30000   7.40000   0.20000    0.00000  90.00000   0.00050   -34   56   57      2
    57  -2.25000   0.50000   7.40000   0.20000    0.00000  90.00000   0.00050   -40   57   46      2
    58  -2.25000  -0.50000   7.60000   0.20000    0.00000  90.00000   0.00050    10   58   59      2
    59  -2.25000  -0.30000   7.60000   0.20000    0.00000  90.00000   0.00050    16   59   60      2
    60  -2.25000  -0.10000   7.60000   0.20000    0.00000  90.00000   0.00050    22   60   61      2
    61  -2.25000   0.10000   7.60000   0.20000    0.00000  90.00000   0.00050    28   61   62      2
    62  -2.25000   0.30000   7.60000   0.20000    0.00000  90.00000   0.00050    34   62   63      2
    63  -2.25000   0.50000   7.60000   0.20000    0.00000  90.00000   0.00050    40   63  -46      2
    64  -2.25000  -0.50000   7.80000   0.20000    0.00000  90.00000   0.00050    11   64   65      2
    65  -2.25000  -0.30000   7.80000   0.20000    0.00000  90.00000   0.00050    17   65   66      2
    66  -2.25000  -0.10000   7.80000   0.20000    0.00000  90.00000   0.00050    23   66   67      2
    67  -2.25000   0.10000   7.80000   0.20000    0.00000  90.00000   0.00050    29   67   68      2
    68  -2.25000   0.30000   7.80000   0.20000    0.00000  90.00000   0.00050    35   68   69      2
    69  -2.25000   0.50000   7.80000   0.20000    0.00000  90.00000   0.00050    41   69  -47      2
    70  -2.25000  -0.50000   8.00000   0.20000    0.00000  90.00000   0.00050    12   70   71      2
    71  -2.25000  -0.30000   8.00000   0.20000    0.00000  90.00000   0.00050    18   71   72      2
    72  -2.25000  -0.10000   8.00000   0.20000    0.00000  90.00000   0.00050    24   72   73      2
    73  -2.25000   0.10000   8.00000   0.20000    0.00000  90.00000   0.00050    -1   73   74      2
    74  -2.25000   0.30000   8.00000   0.20000    0.00000  90.00000   0.00050    36   74   75      2
    75  -2.25000   0.50000   8.00000   0.20000    0.00000  90.00000   0.00050    42   75  -48      2
    76  -2.25000  -0.50000   8.20000   0.20000    0.00000  90.00000   0.00050    13   76   77      2
    77  -2.25000  -0.30000   8.20000   0.20000    0.00000  90.00000   0.00050    19   77   78      2
    78  -2.25000  -0.10000   8.20000   0.20000    0.00000  90.00000   0.00050    25   78   79      2
    79  -2.25000   0.10000   8.20000   0.20000    0.00000  90.00000   0.00050    31   79   80      2
    80  -2.25000   0.30000   8.20000   0.20000    0.00000  90.00000   0.00050    37   80   81      2
    81  -2.25000   0.50000   8.20000   0.20000    0.00000  90.00000   0.00050    43   81  -49      2
    82  -2.25000  -0.50000   8.40000   0.20000    0.00000  90.00000   0.00050    14   82   83      2
    83  -2.25000  -0.30000   8.40000   0.20000    0.00000  90.00000   0.00050    20   83   84      2
    84  -2.25000  -0.10000   8.40000   0.20000    0.00000  90.00000   0.00050    26   84   85      2
    85  -2.25000   0.10000   8.40000   0.20000    0.00000  90.00000   0.00050    32   85   86      2
    86  -2.25000   0.30000   8.40000   0.20000    0.00000  90.00000   0.00050    38   86   87      2
    87  -2.25000   0.50000   8.40000   0.20000    0.00000  90.00000   0.00050    44   87  -50      2
    88  -2.25000  -0.50000   8.60000   0.20000    0.00000  90.00000   0.00050    15   88   89      2
    89  -2.25000  -0.30000   8.60000   0.20000    0.00000  90.00000   0.00050    21   89   90      2
    90  -2.25000  -0.10000   8.60000   0.20000    0.00000  90.00000   0.00050    27   90   91      2
    91  -2.25000   0.10000   8.60000   0.20000    0.00000  90.00000   0.00050    33   91   92      2
    92  -2.25000   0.30000   8.60000   0.20000    0.00000  90.00000   0.00050    39   92   93      2
    93  -2.25000   0.50000   8.60000   0.20000    0.00000  90.00000   0.00050    45   93  -51      2
    94   2.25000  -0.60000   7.50000   0.20000   90.00000   0.00000   0.00050  -136   94   95      3
    95   2.25000  -0.60000   7.70000   0.20000   90.00000   0.00000   0.00050  -142   95   96      3
    96   2.25000  -0.60000   7.90000   0.20000   90.00000   0.00000   0.00050  -148   96   97      3
    97   2.25000  -0.60000   8.10000   0.20000   90.00000   0.00000   0.00050  -154   97   98      3
    98   2.25000  -0.60000   8.30000   0.20000   90.00000   0.00000   0.00050  -160   98   99      3
    99   2.25000  -0.60000   8.50000   0.20000   90.00000   0.00000   0.00050  -166   99  172      3
   100   2.25000  -0.40000   7.50000   0.20000   90.00000  90.00000   0.00050   136  100  101      3
   101   2.25000  -0.40000   7.70000   0.20000   90.00000   0.00000   0.00050   142  101  102      3
   102   2.25000  -0.40000   7.90000   0.20000   90.00000   0.00000   0.00050   148  102  103      3
   103   2.25000  -0.40000   8.10000   0.20000   90.00000   0.00000   0.00050   154  103  104      3
   104   2.25000  -0.40000   8.30000   0.20000   90.00000   0.00000   0.00050   160  104  105      3
   105   2.25000  -0.40000   8.50000   0.20000   90.00000 -90.00000   0.00050   166  105 -172      3
   106   2.25000  -0.20000   7.50000   0.20000   90.00000  90.00000   0.00050   137  106  107      3
   107   2.25000  -0.20000   7.70000   0.20000   90.00000   0.00000   0.00050   143  107  108      3
   108   2.25000  -0.20000   7.90000   0.20000   90.00000   0.00000   0.00050   149  108  109      3
   109   2.25000  -0.20000   8.10000   0.20000   90.00000   0.00000   0.00050   155  109  110      3
   110   2.25000  -0.20000   8.30000   0.20000   90.00000   0.00000   0.00050   161  110  111      3
   111   2.25000  -0.20000   8.50000   0.20000   90.00000 -90.00000   0.00050   167  111 -173      3
   112   2.25000   0.00000   7.50000   0.20000   90.00000  90.00000   0.00050   138  112  113      3
   113   2.25000   0.00000   7.70000   0.20000   90.00000   0.00000   0.00050   144  113  114      3
   114   2.25000   0.00000   7.90000   0.20000   90.00000  90.00000   0.00050   150  114  115      3
   115   2.25000   0.00000   8.10000   0.20000   90.00000 -90.00000   0.00050   156  115  116      3
   116   2.25000   0.00000   8.30000   0.20000   90.00000   0.00000   0.00050   162  116  117      3
   117   2.25000   0.00000   8.50000   0.20000   90.00000 -90.00000   0.00050   168  117 -174      3
   118   2.25000   0.20000   7.50000   0.20000   90.00000  90.00000   0.00050   139  118  119      3
   119   2.25000   0.20000   7.70000   0.20000   90.00000   0.00000   0.00050   145  119  120      3
   120   2.25000   0.20000   7.90000   0.20000   90.00000   0.00000   0.00050   151  120  121      3
   121   2.25000   0.20000   8.10000   0.20000   90.00000   0.00000   0.00050   157  121  122      3
   122   2.25000   0.20000   8.30000   0.20000   90.00000   0.00000   0.00050   163  122  123      3
   123   2.25000   0.20000   8.50000   0.20000   90.00000 -90.00000   0.00050   169  123 -175      3
   124   2.25000   0.40000   7.50000   0.20000   90.00000  90.00000   0.00050   140  124  125      3
   125   2.25000   0.40000   7.70000   0.20000   90.00000   0.00000   0.00050   146  125  126      3
   126   2.25000   0.40000   7.90000   0.20000   90.00000   0.00000   0.00050   152  126  127      3
   127   2.25000   0.40000   8.10000   0.20000   90.00000   0.00000   0.00050   158  127  128      3
   128   2.25000   0.40000   8.30000   0.20000   90.00000   0.00000   0.00050   164  128  129      3
   129   2.25000   0.40000   8.50000   0.20000   90.00000 -90.00000   0.00050   170  129 -176      3
   130   2.25000   0.60000   7.50000   0.20000   90.00000   0.00000   0.00050   141  130  131      3
   131   2.25000   0.60000   7.70000   0.20000   90.00000   0.00000   0.00050   147  131  132      3
   132   2.25000   0.60000   7.90000   0.20000   90.00000   0.00000   0.00050   153  132  133      3
   133   2.25000   0.60000   8.10000   0.20000   90.00000   0.00000   0.00050   159  133  134      3
   134   2.25000   0.60000   8.30000   0.20000   90.00000   0.00000   0.00050   165  134  135      3
   135   2.25000   0.60000   8.50000   0.20000   90.00000   0.00000   0.00050   171  135 -177      3
   136   2.25000  -0.50000   7.40000   0.20000    0.00000  90.00000   0.00050   -94  136  137      3
   137   2.25000  -0.30000   7.40000   0.20000    0.00000  90.00000   0.00050  -100  137  138      3
   138   2.25000  -0.10000   7.40000   0.20000    0.00000  90.00000   0.00050  -106  138  139      3
   139   2.25000   0.10000   7.40000   0.20000    0.00000  90.00000   0.00050  -112  139  140      3
   140   2.25000   0.30000   7.40000   0.20000    0.00000  90.00000   0.00050  -118  140  141      3
   141   2.25000   0.50000   7.40000   0.20000    0.00000  90.00000   0.00050  -124  141  130      3
   142   2.25000  -0.50000   7.60000   0.20000    0.00000  90.00000   0.00050    94  142  143      3
   143   2.25000  -0.30000   7.60000   0.20000    0.00000  90.00000   0.00050   100  143  144      3
   144   2.25000  -0.10000   7.60000   0.20000    0.00000  90.00000   0.00050   106  144  145      3
   145   2.25000   0.10000   7.60000   0.20000    0.00000  90.00000   0.00050   112  145  146      3
   146   2.25000   0.30000   7.60000   0.20000    0.00000  90.00000   0.00050   118  146  147      3
   147   2.25000   0.50000   7.60000   0.20000    0.00000  90.00000   0.00050   124  147 -130      3
   148   2.25000  -0.50000   7.80000   0.20000    0.00000  90.00000   0.00050    95  148  149      3
   149   2.25000  -0.30000   7.80000   0.20000    0.00000  90.00000   0.00050   101  149  150      3
   150   2.25000  -0.10000   7.80000   0.20000    0.00000  90.00000   0.00050   107  150  151      3
   151   2.25000   0.10000   7.80000   0.20000    0.00000  90.00000   0.00050   113  151  152      3
   152   2.25000   0.30000   7.80000   0.20000    0.00000  90.00000   0.00050   119  152  153      3
   153   2.25000   0.50000   7.80000   0.20000    0.00000  90.00000   0.00050   125  153 -131      3
   154   2.25000  -0.50000   8.00000   0.20000    0.00000  90.00000   0.00050    96  154  155      3
   155   2.25000  -0.30000   8.00000   0.20000    0.00000  90.00000   0.00050   102  155  156      3
   156   2.25000  -0.10000   8.00000   0.20000    0.00000  90.00000   0.00050   108  156  157      3
   157   2.25000   0.10000   8.00000   0.20000    0.00000  90.00000   0.00050     9  157  158      3
   158   2.25000   0.30000   8.00000   0.20000    0.00000  90.00000   0.00050   120  158  159      3
   159   2.25000   0.50000   8.00000   0.20000    0.00000  90.00000   0.00050   126  159 -132      3
   160   2.25000  -0.50000   8.20000   0.20000    0.00000  90.00000   0.00050    97  160  161      3
   161   2.25000  -0.30000   8.20000   0.20000    0.00000  90.00000   0.00050   103  161  162      3
   162   2.25000  -0.10000   8.20000   0.20000    0.00000  90.00000   0.00050   109  162  163      3
   163   2.25000   0.10000   8.20000   0.20000    0.00000  90.00000   0.00050   115  163  164      3
   164   2.25000   0.30000   8.20000   0.20000    0.00000  90.00000   0.00050   121  164  165      3
   165   2.25000   0.50000   8.20000   0.20000    0.00000  90.00000   0.00050   127  165 -133      3
   166   2.25000  -0.50000   8.40000   0.20000    0.00000  90.00000   0.00050    98  166  167      3
   167   2.25000  -0.30000   8.40000   0.20000    0.00000  90.00000   0.00050   104  167  168      3
   168   2.25000  -0.10000   8.40000   0.20000    0.00000  90.00000   0.00050   110  168  169      3
   169   2.25000   0.10000   8.40000   0.20000    0.00000  90.00000   0.00050   116  169  170      3
   170   2.25000   0.30000   8.40000   0.20000    0.00000  90.00000   0.00050   122  170  171      3
   171   2.25000   0.50000   8.40000   0.20000    0.00000  90.00000   0.00050   128  171 -134      3
   172   2.25000  -0.50000   8.60000   0.20000    0.00000  90.00000   0.00050    99  172  173      3
   173   2.25000  -0.30000   8.60000   0.20000    0.00000  90.00000   0.00050   105  173  174      3
   174   2.25000  -0.10000   8.60000   0.20000    0.00000  90.00000   0.00050   111  174  175      3
   175   2.25000   0.10000   8.60000   0.20000    0.00000  90.00000   0.00050   117  175  176      3
   176   2.25000   0.30000   8.60000   0.20000    0.00000  90.00000   0.00050   123  176  177      3
   177   2.25000   0.50000   8.60000   0.20000    0.00000  90.00000   0.00050   129  177 -135      3






 ***** DATA CARD NO.  1   GN   2     0     0     0  1.10000E+01  1.00000E-02  0.00000E+00  0.00000E+00  0.00000E+00  0.00000E+00
 ***** DATA CARD NO.  2   EK   0     0     0     0  0.00000E+00  0.00000E+00  0.00000E+00  0.00000E+00  0.00000E+00  0.00000E+00
 ***** DATA CARD NO.  3   LD   5     0     0     0  5.80000E+07  0.00000E+00  0.00000E+00  0.00000E+00  0.00000E+00  0.00000E+00
 ***** DATA CARD NO.  4   LD   1     2     0     0  3.44828E-09  0.00000E+00  0.00000E+00  0.00000E+00  0.00000E+00  0.00000E+00
 ***** DATA CARD NO.  5   LD   1     3     0     0  3.44828E-09  0.00000E+00  0.00000E+00  0.00000E+00  0.00000E+00  0.00000E+00
 ***** DATA CARD NO.  6   EX   0   999     1     0  1.00000E+00  0.00000E+00  0.00000E+00  0.00000E+00  0.00000E+00  0.00000E+00
 ***** DATA CARD NO.  7   FR   0     1     0     0  1.40000E+01  0.00000E+00  0.00000E+00  0.00000E+00  0.00000E+00  0.00000E+00
 ***** DATA CARD NO.  8   RP   0     1   360  1000  4.50000E+01  0.00000E+00  0.00000E+00  1.00000E+00  0.00000E+00  0.00000E+00




                                 - - - - - - FREQUENCY - - - - - -

                                    FREQUENCY= 1.4000E+01 MHZ
                                    WAVELENGTH= 2.1414E+01 METERS




                    APPROXIMATE INTEGRATION EMPLOYED FOR SEGMENTS MORE THAN   1.000 WAVELENGTHS APART

                    THE EXTENDED THIN WIRE KERNEL WILL BE USED



                               - - - STRUCTURE IMPEDANCE LOADING - - -


       LOCATION          RESISTANCE   INDUCTANCE  CAPACITANCE       IMPEDANCE (OHMS)     CONDUCTIVITY    TYPE
    ITAG FROM THRU          OHMS        HENRYS       FARADS        REAL      IMAGINARY    MHOS/METER

     ALL                                                                                 5.8000E+07     WIRE  

       2                3.4483E-09                                                                    PARALLEL

       3                3.4483E-09                                                                    PARALLEL

          NOTE, SOME OF THE ABOVE SEGMENTS HAVE BEEN LOADED TWICE - IMPEDANCES ADDED



                                  - - - ANTENNA ENVIRONMENT - - -

                                        FINITE GROUND.  SOMMERFELD SOLUTION
                                        RELATIVE DIELECTRIC CONST.= 11.000
                                        CONDUCTIVITY= 1.000E-02 MHOS/METER
                                        COMPLEX DIELECTRIC CONSTANT= 1.10000E+01-1.28400E+01



                                - - - MATRIX TIMING - - -

                        FILL=    0.156 SEC.,  FACTOR=    0.016 SEC.



                                          - - - ANTENNA INPUT PARAMETERS - - -

   TAG   SEG.    VOLTAGE (VOLTS)         CURRENT (AMPS)         IMPEDANCE (OHMS)        ADMITTANCE (MHOS)      POWER
   NO.   NO.    REAL        IMAG.       REAL        IMAG.       REAL        IMAG.       REAL        IMAG.     (WATTS)
   999     5 1.00000E+00 0.00000E+00 2.70914E-02-1.97506E-03 3.67170E+01 2.67680E+00 2.70914E-02-1.97506E-03 1.35457E-02



                             - - - CURRENTS AND LOCATION - - -

                                 DISTANCES IN WAVELENGTHS


  SEG.  TAG    COORD. OF SEG. CENTER     SEG.            - - - CURRENT (AMPS) - - -
  NO.   NO.     X        Y        Z      LENGTH     REAL        IMAG.       MAG.        PHASE
     1    1  -0.0926   0.0000   0.3736  0.02502   2.4381E-02 -2.2891E-03  2.4489E-02   -5.364
     2    1  -0.0675   0.0000   0.3736  0.02502   2.5410E-02 -2.3271E-03  2.5517E-02   -5.233
     3    1  -0.0425   0.0000   0.3736  0.02502   2.6390E-02 -2.2997E-03  2.6490E-02   -4.981
     4    1  -0.0175   0.0000   0.3736  0.02502   2.6987E-02 -2.1682E-03  2.7074E-02   -4.594
     5  999   0.0075   0.0000   0.3736  0.02503   2.7091E-02 -1.9751E-03  2.7163E-02   -4.170
     6    1   0.0307   0.0000   0.3736  0.02126   2.6734E-02 -2.1040E-03  2.6817E-02   -4.500
     7    1   0.0519   0.0000   0.3736  0.02126   2.6061E-02 -2.1868E-03  2.6153E-02   -4.796
     8    1   0.0732   0.0000   0.3736  0.02126   2.5168E-02 -2.1970E-03  2.5264E-02   -4.989
     9    1   0.0944   0.0000   0.3736  0.02126   2.4320E-02 -2.1652E-03  2.4416E-02   -5.088
    10    2  -0.1051  -0.0280   0.3502  0.00934   2.4163E-04 -2.2084E-05  2.4264E-04   -5.222
    11    2  -0.1051  -0.0280   0.3596  0.00934   2.5971E-04 -2.4611E-05  2.6087E-04   -5.413
    12    2  -0.1051  -0.0280   0.3689  0.00934   1.6809E-04 -1.5650E-05  1.6881E-04   -5.319
    13    2  -0.1051  -0.0280   0.3783  0.00934  -1.6788E-04  1.5808E-05  1.6862E-04  174.621
    14    2  -0.1051  -0.0280   0.3876  0.00934  -2.5915E-04  2.4936E-05  2.6035E-04  174.504
    15    2  -0.1051  -0.0280   0.3969  0.00934  -2.4078E-04  2.2554E-05  2.4183E-04  174.649
    16    2  -0.1051  -0.0187   0.3502  0.00934   5.5987E-04 -5.2371E-05  5.6232E-04   -5.344
    17    2  -0.1051  -0.0187   0.3596  0.00934   8.3828E-04 -7.8653E-05  8.4196E-04   -5.360
    18    2  -0.1051  -0.0187   0.3689  0.00934   5.6046E-04 -5.2471E-05  5.6291E-04   -5.348
    19    2  -0.1051  -0.0187   0.3783  0.00934  -5.6360E-04  5.1015E-05  5.6590E-04  174.828
    20    2  -0.1051  -0.0187   0.3876  0.00934  -8.4124E-04  7.7271E-05  8.4478E-04  174.752
    21    2  -0.1051  -0.0187   0.3969  0.00934  -5.6214E-04  5.1300E-05  5.6447E-04  174.786
    22    2  -0.1051  -0.0093   0.3502  0.00934   6.1283E-04 -5.8401E-05  6.1561E-04   -5.444
    23    2  -0.1051  -0.0093   0.3596  0.00934   1.3732E-03 -1.3039E-04  1.3794E-03   -5.424
    24    2  -0.1051  -0.0093   0.3689  0.00934   1.5730E-03 -1.4953E-04  1.5800E-03   -5.431
    25    2  -0.1051  -0.0093   0.3783  0.00934  -1.5756E-03  1.4827E-04  1.5825E-03  174.624
    26    2  -0.1051  -0.0093   0.3876  0.00934  -1.3755E-03  1.2929E-04  1.3815E-03  174.630
    27    2  -0.1051  -0.0093   0.3969  0.00934  -6.1417E-04  5.7739E-05  6.1688E-04  174.629
    28    2  -0.1051   0.0000   0.3502  0.00934   8.4339E-04 -7.9497E-05  8.4713E-04   -5.385
    29    2  -0.1051   0.0000   0.3596  0.00934   2.4300E-03 -2.2697E-04  2.4406E-03   -5.336
    30    2  -0.1051   0.0000   0.3689  0.00934   5.9447E-03 -5.6010E-04  5.9710E-03   -5.382
    31    2  -0.1051   0.0000   0.3783  0.00934  -5.9472E-03  5.5890E-04  5.9734E-03  174.631
    32    2  -0.1051   0.0000   0.3876  0.00934  -2.4321E-03  2.2595E-04  2.4425E-03  174.692
    33    2  -0.1051   0.0000   0.3969  0.00934  -8.4456E-04  7.8910E-05  8.4824E-04  174.662
    34    2  -0.1051   0.0093   0.3502  0.00934   6.1283E-04 -5.8401E-05  6.1561E-04   -5.444
    35    2  -0.1051   0.0093   0.3596  0.00934   1.3732E-03 -1.3039E-04  1.3794E-03   -5.424
    36    2  -0.1051   0.0093   0.3689  0.00934   1.5730E-03 -1.4953E-04  1.5800E-03   -5.431
    37    2  -0.1051   0.0093   0.3783  0.00934  -1.5756E-03  1.4827E-04  1.5825E-03  174.624
    38    2  -0.1051   0.0093   0.3876  0.00934  -1.3755E-03  1.2929E-04  1.3815E-03  174.630
    39    2  -0.1051   0.0093   0.3969  0.00934  -6.1417E-04  5.7739E-05  6.1688E-04  174.629
    40    2  -0.1051   0.0187   0.3502  0.00934   5.5987E-04 -5.2371E-05  5.6232E-04   -5.344
    41    2  -0.1051   0.0187   0.3596  0.00934   8.3828E-04 -7.8653E-05  8.4196E-04   -5.360
    42    2  -0.1051   0.0187   0.3689  0.00934   5.6046E-04 -5.2471E-05  5.6291E-04   -5.348
    43    2  -0.1051   0.0187   0.3783  0.00934  -5.6360E-04  5.1015E-05  5.6590E-04  174.828
    44    2  -0.1051   0.0187   0.3876  0.00934  -8.4124E-04  7.7271E-05  8.4478E-04  174.752
    45    2  -0.1051   0.0187   0.3969  0.00934  -5.6214E-04  5.1300E-05  5.6447E-04  174.786
    46    2  -0.1051   0.0280   0.3502  0.00934   2.4163E-04 -2.2084E-05  2.4264E-04   -5.222
    47    2  -0.1051   0.0280   0.3596  0.00934   2.5971E-04 -2.4611E-05  2.6087E-04   -5.413
    48    2  -0.1051   0.0280   0.3689  0.00934   1.6809E-04 -1.5650E-05  1.6881E-04   -5.319
    49    2  -0.1051   0.0280   0.3783  0.00934  -1.6788E-04  1.5808E-05  1.6862E-04  174.621
    50    2  -0.1051   0.0280   0.3876  0.00934  -2.5915E-04  2.4936E-05  2.6035E-04  174.504
    51    2  -0.1051   0.0280   0.3969  0.00934  -2.4078E-04  2.2554E-05  2.4183E-04  174.649
    52    2  -0.1051  -0.0233   0.3456  0.00934   2.4030E-04 -2.3050E-05  2.4141E-04   -5.479
    53    2  -0.1051  -0.0140   0.3456  0.00934   2.5917E-04 -2.5049E-05  2.6038E-04   -5.521
    54    2  -0.1051  -0.0047   0.3456  0.00934   1.6793E-04 -1.5803E-05  1.6867E-04   -5.376
    55    2  -0.1051   0.0047   0.3456  0.00934  -1.6793E-04  1.5803E-05  1.6867E-04  174.624
    56    2  -0.1051   0.0140   0.3456  0.00934  -2.5917E-04  2.5049E-05  2.6038E-04  174.479
    57    2  -0.1051   0.0233   0.3456  0.00934  -2.4030E-04  2.3050E-05  2.4141E-04  174.521
    58    2  -0.1051  -0.0233   0.3549  0.00934   5.6085E-04 -5.1723E-05  5.6323E-04   -5.269
    59    2  -0.1051  -0.0140   0.3549  0.00934   8.3958E-04 -7.7943E-05  8.4319E-04   -5.304
    60    2  -0.1051  -0.0047   0.3549  0.00934   5.6197E-04 -5.1737E-05  5.6435E-04   -5.260
    61    2  -0.1051   0.0047   0.3549  0.00934  -5.6197E-04  5.1737E-05  5.6435E-04  174.740
    62    2  -0.1051   0.0140   0.3549  0.00934  -8.3958E-04  7.7943E-05  8.4319E-04  174.696
    63    2  -0.1051   0.0233   0.3549  0.00934  -5.6085E-04  5.1723E-05  5.6323E-04  174.731
    64    2  -0.1051  -0.0233   0.3642  0.00934   6.1356E-04 -5.7898E-05  6.1628E-04   -5.391
    65    2  -0.1051  -0.0140   0.3642  0.00934   1.3743E-03 -1.2976E-04  1.3804E-03   -5.394
    66    2  -0.1051  -0.0047   0.3642  0.00934   1.5743E-03 -1.4888E-04  1.5813E-03   -5.402
    67    2  -0.1051   0.0047   0.3642  0.00934  -1.5743E-03  1.4888E-04  1.5813E-03  174.598
    68    2  -0.1051   0.0140   0.3642  0.00934  -1.3743E-03  1.2976E-04  1.3804E-03  174.606
    69    2  -0.1051   0.0233   0.3642  0.00934  -6.1356E-04  5.7898E-05  6.1628E-04  174.609
    70    2  -0.1051  -0.0233   0.3736  0.00934   8.4401E-04 -7.9055E-05  8.4770E-04   -5.351
    71    2  -0.1051  -0.0140   0.3736  0.00934   2.4310E-03 -2.2636E-04  2.4416E-03   -5.320
    72    2  -0.1051  -0.0047   0.3736  0.00934   5.9460E-03 -5.5946E-04  5.9722E-03   -5.375
    73    2  -0.1051   0.0047   0.3736  0.00934  -5.9460E-03  5.5946E-04  5.9722E-03  174.625
    74    2  -0.1051   0.0140   0.3736  0.00934  -2.4310E-03  2.2636E-04  2.4416E-03  174.680
    75    2  -0.1051   0.0233   0.3736  0.00934  -8.4401E-04  7.9055E-05  8.4770E-04  174.649
    76    2  -0.1051  -0.0233   0.3829  0.00934   6.1352E-04 -5.7921E-05  6.1625E-04   -5.393
    77    2  -0.1051  -0.0140   0.3829  0.00934   1.3744E-03 -1.2971E-04  1.3805E-03   -5.391
    78    2  -0.1051  -0.0047   0.3829  0.00934   1.5743E-03 -1.4885E-04  1.5813E-03   -5.401
    79    2  -0.1051   0.0047   0.3829  0.00934  -1.5743E-03  1.4885E-04  1.5813E-03  174.599
    80    2  -0.1051   0.0140   0.3829  0.00934  -1.3744E-03  1.2971E-04  1.3805E-03  174.609
    81    2  -0.1051   0.0233   0.3829  0.00934  -6.1352E-04  5.7921E-05  6.1625E-04  174.607
    82    2  -0.1051  -0.0233   0.3923  0.00934   5.6125E-04 -5.1548E-05  5.6361E-04   -5.248
    83    2  -0.1051  -0.0140   0.3923  0.00934   8.4000E-04 -7.7746E-05  8.4359E-04   -5.288
    84    2  -0.1051  -0.0047   0.3923  0.00934   5.6211E-04 -5.1670E-05  5.6448E-04   -5.252
    85    2  -0.1051   0.0047   0.3923  0.00934  -5.6211E-04  5.1670E-05  5.6448E-04  174.748
    86    2  -0.1051   0.0140   0.3923  0.00934  -8.4000E-04  7.7746E-05  8.4359E-04  174.712
    87    2  -0.1051   0.0233   0.3923  0.00934  -5.6125E-04  5.1548E-05  5.6361E-04  174.752
    88    2  -0.1051  -0.0233   0.4016  0.00934   2.4197E-04 -2.2203E-05  2.4299E-04   -5.243
    89    2  -0.1051  -0.0140   0.4016  0.00934   2.5962E-04 -2.4785E-05  2.6081E-04   -5.453
    90    2  -0.1051  -0.0047   0.4016  0.00934   1.6802E-04 -1.5738E-05  1.6876E-04   -5.351
    91    2  -0.1051   0.0047   0.4016  0.00934  -1.6802E-04  1.5738E-05  1.6876E-04  174.649
    92    2  -0.1051   0.0140   0.4016  0.00934  -2.5962E-04  2.4785E-05  2.6081E-04  174.547
    93    2  -0.1051   0.0233   0.4016  0.00934  -2.4197E-04  2.2203E-05  2.4299E-04  174.757
    94    3   0.1051  -0.0280   0.3502  0.00934  -2.4162E-04  2.0911E-05  2.4252E-04  175.054
    95    3   0.1051  -0.0280   0.3596  0.00934  -2.5977E-04  2.3297E-05  2.6081E-04  174.875
    96    3   0.1051  -0.0280   0.3689  0.00934  -1.6829E-04  1.4813E-05  1.6894E-04  174.970
    97    3   0.1051  -0.0280   0.3783  0.00934   1.6808E-04 -1.4970E-05  1.6875E-04   -5.089
    98    3   0.1051  -0.0280   0.3876  0.00934   2.5921E-04 -2.3621E-05  2.6028E-04   -5.207
    99    3   0.1051  -0.0280   0.3969  0.00934   2.4076E-04 -2.1379E-05  2.4171E-04   -5.074
   100    3   0.1051  -0.0187   0.3502  0.00934  -5.5974E-04  4.9668E-05  5.6194E-04  174.929
   101    3   0.1051  -0.0187   0.3596  0.00934  -8.3810E-04  7.4568E-05  8.4141E-04  174.916
   102    3   0.1051  -0.0187   0.3689  0.00934  -5.6098E-04  4.9736E-05  5.6318E-04  174.933
   103    3   0.1051  -0.0187   0.3783  0.00934   5.6412E-04 -4.8288E-05  5.6618E-04   -4.893
   104    3   0.1051  -0.0187   0.3876  0.00934   8.4106E-04 -7.3193E-05  8.4424E-04   -4.974
   105    3   0.1051  -0.0187   0.3969  0.00934   5.6201E-04 -4.8601E-05  5.6411E-04   -4.943
   106    3   0.1051  -0.0093   0.3502  0.00934  -6.1262E-04  5.5348E-05  6.1511E-04  174.838
   107    3   0.1051  -0.0093   0.3596  0.00934  -1.3721E-03  1.2357E-04  1.3777E-03  174.854
   108    3   0.1051  -0.0093   0.3689  0.00934  -1.5717E-03  1.4171E-04  1.5781E-03  174.848
   109    3   0.1051  -0.0093   0.3783  0.00934   1.5744E-03 -1.4045E-04  1.5806E-03   -5.098
   110    3   0.1051  -0.0093   0.3876  0.00934   1.3744E-03 -1.2247E-04  1.3799E-03   -5.092
   111    3   0.1051  -0.0093   0.3969  0.00934   6.1396E-04 -5.4689E-05  6.1639E-04   -5.090
   112    3   0.1051   0.0000   0.3502  0.00934  -8.4371E-04  7.5309E-05  8.4707E-04  174.899
   113    3   0.1051   0.0000   0.3596  0.00934  -2.4311E-03  2.1501E-04  2.4406E-03  174.946
   114    3   0.1051   0.0000   0.3689  0.00934  -5.9430E-03  5.3062E-04  5.9666E-03  174.898
   115    3   0.1051   0.0000   0.3783  0.00934   5.9454E-03 -5.2943E-04  5.9690E-03   -5.089
   116    3   0.1051   0.0000   0.3876  0.00934   2.4332E-03 -2.1399E-04  2.4426E-03   -5.026
   117    3   0.1051   0.0000   0.3969  0.00934   8.4488E-04 -7.4726E-05  8.4818E-04   -5.054
   118    3   0.1051   0.0093   0.3502  0.00934  -6.1262E-04  5.5348E-05  6.1511E-04  174.838
   119    3   0.1051   0.0093   0.3596  0.00934  -1.3721E-03  1.2357E-04  1.3777E-03  174.854
   120    3   0.1051   0.0093   0.3689  0.00934  -1.5717E-03  1.4171E-04  1.5781E-03  174.848
   121    3   0.1051   0.0093   0.3783  0.00934   1.5744E-03 -1.4045E-04  1.5806E-03   -5.098
   122    3   0.1051   0.0093   0.3876  0.00934   1.3744E-03 -1.2247E-04  1.3799E-03   -5.092
   123    3   0.1051   0.0093   0.3969  0.00934   6.1396E-04 -5.4689E-05  6.1639E-04   -5.090
   124    3   0.1051   0.0187   0.3502  0.00934  -5.5974E-04  4.9668E-05  5.6194E-04  174.929
   125    3   0.1051   0.0187   0.3596  0.00934  -8.3810E-04  7.4568E-05  8.4141E-04  174.916
   126    3   0.1051   0.0187   0.3689  0.00934  -5.6098E-04  4.9736E-05  5.6318E-04  174.933
   127    3   0.1051   0.0187   0.3783  0.00934   5.6412E-04 -4.8288E-05  5.6618E-04   -4.893
   128    3   0.1051   0.0187   0.3876  0.00934   8.4106E-04 -7.3193E-05  8.4424E-04   -4.974
   129    3   0.1051   0.0187   0.3969  0.00934   5.6201E-04 -4.8601E-05  5.6411E-04   -4.943
   130    3   0.1051   0.0280   0.3502  0.00934  -2.4162E-04  2.0911E-05  2.4252E-04  175.054
   131    3   0.1051   0.0280   0.3596  0.00934  -2.5977E-04  2.3297E-05  2.6081E-04  174.875
   132    3   0.1051   0.0280   0.3689  0.00934  -1.6829E-04  1.4813E-05  1.6894E-04  174.970
   133    3   0.1051   0.0280   0.3783  0.00934   1.6808E-04 -1.4970E-05  1.6875E-04   -5.089
   134    3   0.1051   0.0280   0.3876  0.00934   2.5921E-04 -2.3621E-05  2.6028E-04   -5.207
   135    3   0.1051   0.0280   0.3969  0.00934   2.4076E-04 -2.1379E-05  2.4171E-04   -5.074
   136    3   0.1051  -0.0233   0.3456  0.00934  -2.4029E-04  2.1873E-05  2.4128E-04  174.799
   137    3   0.1051  -0.0140   0.3456  0.00934  -2.5923E-04  2.3735E-05  2.6032E-04  174.769
   138    3   0.1051  -0.0047   0.3456  0.00934  -1.6813E-04  1.4965E-05  1.6879E-04  174.913
   139    3   0.1051   0.0047   0.3456  0.00934   1.6813E-04 -1.4965E-05  1.6879E-04   -5.087
   140    3   0.1051   0.0140   0.3456  0.00934   2.5923E-04 -2.3735E-05  2.6032E-04   -5.231
   141    3   0.1051   0.0233   0.3456  0.00934   2.4029E-04 -2.1873E-05  2.4128E-04   -5.201
   142    3   0.1051  -0.0233   0.3549  0.00934  -5.6072E-04  4.9021E-05  5.6286E-04  175.004
   143    3   0.1051  -0.0140   0.3549  0.00934  -8.3940E-04  7.3861E-05  8.4264E-04  174.971
   144    3   0.1051  -0.0047   0.3549  0.00934  -5.6249E-04  4.9006E-05  5.6462E-04  175.021
   145    3   0.1051   0.0047   0.3549  0.00934   5.6249E-04 -4.9006E-05  5.6462E-04   -4.979
   146    3   0.1051   0.0140   0.3549  0.00934   8.3940E-04 -7.3861E-05  8.4264E-04   -5.029
   147    3   0.1051   0.0233   0.3549  0.00934   5.6072E-04 -4.9021E-05  5.6286E-04   -4.996
   148    3   0.1051  -0.0233   0.3642  0.00934  -6.1334E-04  5.4847E-05  6.1579E-04  174.890
   149    3   0.1051  -0.0140   0.3642  0.00934  -1.3732E-03  1.2294E-04  1.3787E-03  174.884
   150    3   0.1051  -0.0047   0.3642  0.00934  -1.5730E-03  1.4106E-04  1.5793E-03  174.876
   151    3   0.1051   0.0047   0.3642  0.00934   1.5730E-03 -1.4106E-04  1.5793E-03   -5.124
   152    3   0.1051   0.0140   0.3642  0.00934   1.3732E-03 -1.2294E-04  1.3787E-03   -5.116
   153    3   0.1051   0.0233   0.3642  0.00934   6.1334E-04 -5.4847E-05  6.1579E-04   -5.110
   154    3   0.1051  -0.0233   0.3736  0.00934  -8.4433E-04  7.4869E-05  8.4764E-04  174.933
   155    3   0.1051  -0.0140   0.3736  0.00934  -2.4322E-03  2.1440E-04  2.4416E-03  174.962
   156    3   0.1051  -0.0047   0.3736  0.00934  -5.9442E-03  5.2999E-04  5.9678E-03  174.905
   157    3   0.1051   0.0047   0.3736  0.00934   5.9442E-03 -5.2999E-04  5.9678E-03   -5.095
   158    3   0.1051   0.0140   0.3736  0.00934   2.4322E-03 -2.1440E-04  2.4416E-03   -5.038
   159    3   0.1051   0.0233   0.3736  0.00934   8.4433E-04 -7.4869E-05  8.4764E-04   -5.067
   160    3   0.1051  -0.0233   0.3829  0.00934  -6.1331E-04  5.4870E-05  6.1576E-04  174.888
   161    3   0.1051  -0.0140   0.3829  0.00934  -1.3734E-03  1.2289E-04  1.3788E-03  174.887
   162    3   0.1051  -0.0047   0.3829  0.00934  -1.5731E-03  1.4103E-04  1.5794E-03  174.877
   163    3   0.1051   0.0047   0.3829  0.00934   1.5731E-03 -1.4103E-04  1.5794E-03   -5.123
   164    3   0.1051   0.0140   0.3829  0.00934   1.3734E-03 -1.2289E-04  1.3788E-03   -5.113
   165    3   0.1051   0.0233   0.3829  0.00934   6.1331E-04 -5.4870E-05  6.1576E-04   -5.112
   166    3   0.1051  -0.0233   0.3923  0.00934  -5.6112E-04  4.8847E-05  5.6324E-04  175.025
   167    3   0.1051  -0.0140   0.3923  0.00934  -8.3982E-04  7.3664E-05  8.4304E-04  174.987
   168    3   0.1051  -0.0047   0.3923  0.00934  -5.6262E-04  4.8940E-05  5.6475E-04  175.029
   169    3   0.1051   0.0047   0.3923  0.00934   5.6262E-04 -4.8940E-05  5.6475E-04   -4.971
   170    3   0.1051   0.0140   0.3923  0.00934   8.3982E-04 -7.3664E-05  8.4304E-04   -5.013
   171    3   0.1051   0.0233   0.3923  0.00934   5.6112E-04 -4.8847E-05  5.6324E-04   -4.975
   172    3   0.1051  -0.0233   0.4016  0.00934  -2.4196E-04  2.1030E-05  2.4287E-04  175.032
   173    3   0.1051  -0.0140   0.4016  0.00934  -2.5968E-04  2.3472E-05  2.6074E-04  174.835
   174    3   0.1051  -0.0047   0.4016  0.00934  -1.6823E-04  1.4901E-05  1.6888E-04  174.938
   175    3   0.1051   0.0047   0.4016  0.00934   1.6822E-04 -1.4901E-05  1.6888E-04   -5.062
   176    3   0.1051   0.0140   0.4016  0.00934   2.5968E-04 -2.3472E-05  2.6074E-04   -5.165
   177    3   0.1051   0.0233   0.4016  0.00934   2.4196E-04 -2.1030E-05  2.4287E-04   -4.968



                                        - - - POWER BUDGET - - -

                                           INPUT POWER   = 1.3546E-02 WATTS
                                           RADIATED POWER= 1.3485E-02 WATTS
                                           STRUCTURE LOSS= 6.1060E-05 WATTS
                                           NETWORK LOSS  = 0.0000E+00 WATTS
                                           EFFICIENCY    =  99.55 PERCENT



                                                - - - RADIATION PATTERNS - - -

  - - ANGLES - -           - POWER GAINS -       - - - POLARIZATION - - -    - - - E(THETA) - - -    - - - E(PHI) - - -
  THETA     PHI        VERT.   HOR.    TOTAL      AXIAL     TILT   SENSE     MAGNITUDE    PHASE      MAGNITUDE    PHASE 
 DEGREES  DEGREES       DB      DB      DB        RATIO     DEG.              VOLTS/M    DEGREES      VOLTS/M    DEGREES
   45.00     0.00       1.32 -182.81    1.32    0.00000     0.00  LINEAR    1.04939E+00    -9.28    6.51960E-10    99.56
   45.00     1.00       1.32  -29.67    1.32    0.00077    -1.62  RIGHT     1.04924E+00    -9.28    2.96182E-02   172.29
   45.00     2.00       1.32  -23.65    1.33    0.00154    -3.23  RIGHT     1.04879E+00    -9.28    5.92291E-02   172.29
   45.00     3.00       1.31  -20.13    1.34    0.00230    -4.84  RIGHT     1.04804E+00    -9.28    8.88255E-02   172.29
   45.00     4.00       1.30  -17.63    1.36    0.00305    -6.45  RIGHT     1.04700E+00    -9.28    1.18400E-01   172.29
   45.00     5.00       1.29  -15.69    1.38    0.00379    -8.05  RIGHT     1.04565E+00    -9.28    1.47946E-01   172.29
   45.00     6.00       1.28  -14.11    1.40    0.00451    -9.64  RIGHT     1.04401E+00    -9.28    1.77455E-01   172.29
   45.00     7.00       1.26  -12.78    1.43    0.00522   -11.23  RIGHT     1.04207E+00    -9.28    2.06920E-01   172.29
   45.00     8.00       1.24  -11.63    1.46    0.00590   -12.80  RIGHT     1.03983E+00    -9.28    2.36335E-01   172.29
   45.00     9.00       1.22  -10.61    1.50    0.00656   -14.36  RIGHT     1.03729E+00    -9.28    2.65691E-01   172.29
   45.00    10.00       1.20   -9.70    1.54    0.00720   -15.91  RIGHT     1.03446E+00    -9.28    2.94982E-01   172.29
   45.00    11.00       1.17   -8.88    1.58    0.00781   -17.45  RIGHT     1.03133E+00    -9.28    3.24200E-01   172.29
   45.00    12.00       1.14   -8.13    1.63    0.00839   -18.97  RIGHT     1.02790E+00    -9.28    3.53337E-01   172.29
   45.00    13.00       1.11   -7.45    1.68    0.00895   -20.47  RIGHT     1.02418E+00    -9.28    3.82386E-01   172.29
   45.00    14.00       1.08   -6.81    1.73    0.00947   -21.95  RIGHT     1.02016E+00    -9.28    4.11340E-01   172.29
   45.00    15.00       1.04   -6.22    1.79    0.00996   -23.42  RIGHT     1.01584E+00    -9.28    4.40192E-01   172.29
   45.00    16.00       1.00   -5.67    1.85    0.01042   -24.87  RIGHT     1.01123E+00    -9.28    4.68933E-01   172.29
   45.00    17.00       0.96   -5.16    1.91    0.01085   -26.30  RIGHT     1.00633E+00    -9.28    4.97556E-01   172.29
   45.00    18.00       0.91   -4.68    1.97    0.01124   -27.72  RIGHT     1.00113E+00    -9.28    5.26054E-01   172.29
   45.00    19.00       0.87   -4.22    2.04    0.01161   -29.11  RIGHT     9.95643E-01    -9.28    5.54419E-01   172.29
   45.00    20.00       0.81   -3.79    2.11    0.01194   -30.48  RIGHT     9.89862E-01    -9.28    5.82644E-01   172.29
   45.00    21.00       0.76   -3.38    2.18    0.01224   -31.83  RIGHT     9.83790E-01    -9.28    6.10720E-01   172.29
   45.00    22.00       0.71   -2.99    2.25    0.01250   -33.16  RIGHT     9.77427E-01    -9.28    6.38641E-01   172.29
   45.00    23.00       0.65   -2.62    2.32    0.01274   -34.46  RIGHT     9.70775E-01    -9.28    6.66397E-01   172.29
   45.00    24.00       0.58   -2.27    2.40    0.01295   -35.75  RIGHT     9.63835E-01    -9.28    6.93983E-01   172.29
   45.00    25.00       0.52   -1.93    2.47    0.01313   -37.02  RIGHT     9.56609E-01    -9.28    7.21389E-01   172.29
   45.00    26.00       0.45   -1.61    2.55    0.01328   -38.26  RIGHT     9.49096E-01    -9.28    7.48608E-01   172.29
   45.00    27.00       0.38   -1.30    2.63    0.01340   -39.49  RIGHT     9.41298E-01    -9.28    7.75632E-01   172.29
   45.00    28.00       0.30   -1.01    2.71    0.01350   -40.69  RIGHT     9.33218E-01    -9.28    8.02454E-01   172.29
   45.00    29.00       0.22   -0.72    2.79    0.01357   -41.87  RIGHT     9.24855E-01    -9.28    8.29065E-01   172.29
   45.00    30.00       0.14   -0.45    2.87    0.01362   -43.04  RIGHT     9.16212E-01    -9.28    8.55457E-01   172.29
   45.00    31.00       0.06   -0.19    2.95    0.01365   -44.18  RIGHT     9.07290E-01    -9.28    8.81623E-01   172.29
   45.00    32.00      -0.03    0.06    3.03    0.01365   -45.30  RIGHT     8.98091E-01    -9.28    9.07554E-01   172.29
   45.00    33.00      -0.12    0.30    3.11    0.01364   -46.40  RIGHT     8.88616E-01    -9.28    9.33242E-01   172.29
   45.00    34.00      -0.22    0.54    3.19    0.01360   -47.49  RIGHT     8.78867E-01    -9.28    9.58680E-01   172.29
   45.00    35.00      -0.32    0.76    3.27    0.01355   -48.55  RIGHT     8.68847E-01    -9.28    9.83859E-01   172.29
   45.00    36.00      -0.42    0.98    3.35    0.01348   -49.60  RIGHT     8.58556E-01    -9.28    1.00877E+00   172.29
   45.00    37.00      -0.53    1.19    3.42    0.01339   -50.63  RIGHT     8.47998E-01    -9.28    1.03341E+00   172.29
   45.00    38.00      -0.64    1.39    3.50    0.01329   -51.64  RIGHT     8.37174E-01    -9.28    1.05776E+00   172.29
   45.00    39.00      -0.76    1.59    3.58    0.01317   -52.64  RIGHT     8.26087E-01    -9.28    1.08183E+00   172.29
   45.00    40.00      -0.88    1.78    3.66    0.01304   -53.62  RIGHT     8.14739E-01    -9.28    1.10559E+00   172.29
   45.00    41.00      -1.00    1.96    3.74    0.01290   -54.58  RIGHT     8.03132E-01    -9.28    1.12905E+00   172.29
   45.00    42.00      -1.13    2.13    3.81    0.01274   -55.52  RIGHT     7.91269E-01    -9.28    1.15219E+00   172.29
   45.00    43.00      -1.26    2.30    3.89    0.01258   -56.46  RIGHT     7.79154E-01    -9.28    1.17501E+00   172.29
   45.00    44.00      -1.40    2.47    3.96    0.01240   -57.37  RIGHT     7.66787E-01    -9.28    1.19750E+00   172.29
   45.00    45.00      -1.55    2.63    4.03    0.01221   -58.27  RIGHT     7.54174E-01    -9.28    1.21965E+00   172.29
   45.00    46.00      -1.70    2.78    4.11    0.01202   -59.16  RIGHT     7.41316E-01    -9.28    1.24145E+00   172.29
   45.00    47.00      -1.85    2.93    4.18    0.01182   -60.04  RIGHT     7.28217E-01    -9.28    1.26290E+00   172.29
   45.00    48.00      -2.01    3.07    4.25    0.01161   -60.90  RIGHT     7.14880E-01    -9.28    1.28398E+00   172.28
   45.00    49.00      -2.18    3.21    4.32    0.01139   -61.75  RIGHT     7.01308E-01    -9.28    1.30469E+00   172.28
   45.00    50.00      -2.35    3.35    4.38    0.01116   -62.58  RIGHT     6.87505E-01    -9.28    1.32503E+00   172.28
   45.00    51.00      -2.53    3.48    4.45    0.01093   -63.41  RIGHT     6.73475E-01    -9.28    1.34498E+00   172.28
   45.00    52.00      -2.72    3.60    4.51    0.01070   -64.22  RIGHT     6.59221E-01    -9.28    1.36453E+00   172.28
   45.00    53.00      -2.91    3.72    4.58    0.01045   -65.02  RIGHT     6.44747E-01    -9.28    1.38369E+00   172.28
   45.00    54.00      -3.11    3.84    4.64    0.01021   -65.81  RIGHT     6.30057E-01    -9.28    1.40243E+00   172.28
   45.00    55.00      -3.32    3.95    4.70    0.00996   -66.59  RIGHT     6.15155E-01    -9.28    1.42076E+00   172.28
   45.00    56.00      -3.53    4.06    4.76    0.00970   -67.37  RIGHT     6.00045E-01    -9.28    1.43867E+00   172.28
   45.00    57.00      -3.76    4.17    4.82    0.00944   -68.13  RIGHT     5.84733E-01    -9.28    1.45614E+00   172.28
   45.00    58.00      -3.99    4.27    4.87    0.00918   -68.88  RIGHT     5.69221E-01    -9.28    1.47318E+00   172.28
   45.00    59.00      -4.23    4.37    4.93    0.00891   -69.62  RIGHT     5.53516E-01    -9.28    1.48977E+00   172.28
   45.00    60.00      -4.49    4.46    4.98    0.00865   -70.36  RIGHT     5.37620E-01    -9.28    1.50591E+00   172.28
   45.00    61.00      -4.75    4.55    5.03    0.00837   -71.09  RIGHT     5.21540E-01    -9.28    1.52159E+00   172.28
   45.00    62.00      -5.03    4.64    5.08    0.00810   -71.81  RIGHT     5.05280E-01    -9.28    1.53681E+00   172.28
   45.00    63.00      -5.31    4.72    5.13    0.00783   -72.52  RIGHT     4.88845E-01    -9.28    1.55156E+00   172.28
   45.00    64.00      -5.61    4.80    5.18    0.00755   -73.22  RIGHT     4.72240E-01    -9.28    1.56583E+00   172.28
   45.00    65.00      -5.93    4.87    5.22    0.00727   -73.92  RIGHT     4.55471E-01    -9.28    1.57962E+00   172.28
   45.00    66.00      -6.26    4.95    5.26    0.00699   -74.61  RIGHT     4.38542E-01    -9.28    1.59291E+00   172.28
   45.00    67.00      -6.60    5.02    5.31    0.00670   -75.30  RIGHT     4.21460E-01    -9.28    1.60571E+00   172.28
   45.00    68.00      -6.96    5.08    5.35    0.00642   -75.98  RIGHT     4.04230E-01    -9.28    1.61801E+00   172.28
   45.00    69.00      -7.35    5.15    5.38    0.00614   -76.65  RIGHT     3.86857E-01    -9.28    1.62981E+00   172.28
   45.00    70.00      -7.75    5.21    5.42    0.00585   -77.32  RIGHT     3.69348E-01    -9.28    1.64109E+00   172.28
   45.00    71.00      -8.17    5.26    5.46    0.00556   -77.98  RIGHT     3.51707E-01    -9.28    1.65186E+00   172.28
   45.00    72.00      -8.62    5.32    5.49    0.00527   -78.64  RIGHT     3.33942E-01    -9.28    1.66211E+00   172.28
   45.00    73.00      -9.10    5.37    5.52    0.00498   -79.30  RIGHT     3.16058E-01    -9.28    1.67183E+00   172.28
   45.00    74.00      -9.61    5.41    5.55    0.00469   -79.95  RIGHT     2.98061E-01    -9.28    1.68101E+00   172.28
   45.00    75.00     -10.15    5.46    5.58    0.00440   -80.60  RIGHT     2.79957E-01    -9.28    1.68967E+00   172.28
   45.00    76.00     -10.74    5.50    5.60    0.00411   -81.24  RIGHT     2.61752E-01    -9.28    1.69779E+00   172.28
   45.00    77.00     -11.37    5.54    5.63    0.00382   -81.88  RIGHT     2.43454E-01    -9.28    1.70536E+00   172.28
   45.00    78.00     -12.05    5.58    5.65    0.00353   -82.51  RIGHT     2.25068E-01    -9.28    1.71239E+00   172.28
   45.00    79.00     -12.79    5.61    5.67    0.00323   -83.15  RIGHT     2.06601E-01    -9.28    1.71887E+00   172.28
   45.00    80.00     -13.61    5.64    5.69    0.00294   -83.78  RIGHT     1.88059E-01    -9.28    1.72480E+00   172.28
   45.00    81.00     -14.52    5.67    5.71    0.00265   -84.41  RIGHT     1.69449E-01    -9.28    1.73017E+00   172.28
   45.00    82.00     -15.53    5.69    5.72    0.00235   -85.04  RIGHT     1.50777E-01    -9.28    1.73499E+00   172.28
   45.00    83.00     -16.68    5.71    5.74    0.00206   -85.66  RIGHT     1.32051E-01    -9.28    1.73925E+00   172.28
   45.00    84.00     -18.01    5.73    5.75    0.00177   -86.28  RIGHT     1.13277E-01    -9.28    1.74294E+00   172.28
   45.00    85.00     -19.59    5.74    5.76    0.00147   -86.90  RIGHT     9.44608E-02    -9.28    1.74608E+00   172.28
   45.00    86.00     -21.52    5.76    5.77    0.00118   -87.53  RIGHT     7.56105E-02    -9.28    1.74865E+00   172.28
   45.00    87.00     -24.02    5.77    5.77    0.00088   -88.14  RIGHT     5.67324E-02    -9.28    1.75065E+00   172.28
   45.00    88.00     -27.54    5.77    5.78    0.00059   -88.76  RIGHT     3.78334E-02    -9.28    1.75209E+00   172.28
   45.00    89.00     -33.56    5.78    5.78    0.00029   -89.38  RIGHT     1.89203E-02    -9.28    1.75295E+00   172.28
   45.00    90.00    -143.93    5.78    5.78    0.00000    90.00  LINEAR    5.73508E-08   144.12    1.75326E+00   172.28
   45.00    91.00     -33.56    5.78    5.78    0.00029    89.38  LEFT      1.89208E-02   170.72    1.75299E+00   172.28
   45.00    92.00     -27.54    5.77    5.78    0.00059    88.76  LEFT      3.78350E-02   170.72    1.75215E+00   172.28
   45.00    93.00     -24.02    5.77    5.77    0.00088    88.14  LEFT      5.67358E-02   170.72    1.75075E+00   172.28
   45.00    94.00     -21.52    5.76    5.77    0.00118    87.53  LEFT      7.56165E-02   170.72    1.74878E+00   172.28
   45.00    95.00     -19.59    5.75    5.76    0.00147    86.90  LEFT      9.44701E-02   170.72    1.74625E+00   172.28
   45.00    96.00     -18.01    5.73    5.75    0.00177    86.28  LEFT      1.13290E-01   170.72    1.74315E+00   172.28
   45.00    97.00     -16.68    5.71    5.74    0.00206    85.66  LEFT      1.32069E-01   170.72    1.73949E+00   172.28
   45.00    98.00     -15.53    5.69    5.72    0.00235    85.04  LEFT      1.50801E-01   170.72    1.73526E+00   172.28
   45.00    99.00     -14.51    5.67    5.71    0.00265    84.41  LEFT      1.69479E-01   170.72    1.73048E+00   172.28
   45.00   100.00     -13.61    5.64    5.69    0.00294    83.78  LEFT      1.88096E-01   170.72    1.72513E+00   172.28
   45.00   101.00     -12.79    5.61    5.67    0.00323    83.15  LEFT      2.06645E-01   170.72    1.71924E+00   172.28
   45.00   102.00     -12.05    5.58    5.65    0.00353    82.51  LEFT      2.25120E-01   170.72    1.71279E+00   172.28
   45.00   103.00     -11.37    5.54    5.63    0.00382    81.88  LEFT      2.43515E-01   170.72    1.70579E+00   172.28
   45.00   104.00     -10.74    5.50    5.61    0.00411    81.24  LEFT      2.61823E-01   170.72    1.69825E+00   172.28
   45.00   105.00     -10.15    5.46    5.58    0.00440    80.60  LEFT      2.80038E-01   170.72    1.69016E+00   172.28
   45.00   106.00      -9.61    5.42    5.55    0.00469    79.95  LEFT      2.98153E-01   170.72    1.68153E+00   172.28
   45.00   107.00      -9.10    5.37    5.52    0.00498    79.30  LEFT      3.16161E-01   170.72    1.67237E+00   172.28
   45.00   108.00      -8.62    5.32    5.49    0.00527    78.64  LEFT      3.34058E-01   170.72    1.66268E+00   172.28
   45.00   109.00      -8.17    5.27    5.46    0.00556    77.98  LEFT      3.51836E-01   170.72    1.65246E+00   172.28
   45.00   110.00      -7.74    5.21    5.42    0.00585    77.32  LEFT      3.69490E-01   170.72    1.64172E+00   172.28
   45.00   111.00      -7.34    5.15    5.39    0.00614    76.65  LEFT      3.87013E-01   170.72    1.63046E+00   172.28
   45.00   112.00      -6.96    5.09    5.35    0.00642    75.98  LEFT      4.04400E-01   170.72    1.61869E+00   172.28
   45.00   113.00      -6.60    5.02    5.31    0.00670    75.30  LEFT      4.21645E-01   170.72    1.60642E+00   172.28
   45.00   114.00      -6.25    4.95    5.27    0.00699    74.61  LEFT      4.38743E-01   170.72    1.59364E+00   172.28
   45.00   115.00      -5.92    4.88    5.23    0.00727    73.92  LEFT      4.55687E-01   170.72    1.58036E+00   172.28
   45.00   116.00      -5.61    4.80    5.18    0.00755    73.22  LEFT      4.72472E-01   170.72    1.56660E+00   172.29
   45.00   117.00      -5.31    4.72    5.13    0.00783    72.52  LEFT      4.89094E-01   170.72    1.55235E+00   172.29
   45.00   118.00      -5.02    4.64    5.09    0.00810    71.81  LEFT      5.05546E-01   170.72    1.53762E+00   172.29
   45.00   119.00      -4.75    4.55    5.04    0.00837    71.09  LEFT      5.21824E-01   170.72    1.52242E+00   172.29
   45.00   120.00      -4.48    4.46    4.99    0.00865    70.36  LEFT      5.37922E-01   170.72    1.50676E+00   172.29
   45.00   121.00      -4.23    4.37    4.93    0.00891    69.62  LEFT      5.53836E-01   170.72    1.49063E+00   172.29
   45.00   122.00      -3.99    4.27    4.88    0.00918    68.88  LEFT      5.69560E-01   170.72    1.47406E+00   172.29
   45.00   123.00      -3.75    4.17    4.82    0.00944    68.13  LEFT      5.85091E-01   170.72    1.45703E+00   172.29
   45.00   124.00      -3.53    4.07    4.76    0.00970    67.37  LEFT      6.00423E-01   170.72    1.43957E+00   172.29
   45.00   125.00      -3.31    3.96    4.71    0.00996    66.59  LEFT      6.15552E-01   170.72    1.42168E+00   172.29
   45.00   126.00      -3.10    3.85    4.65    0.01021    65.81  LEFT      6.30473E-01   170.72    1.40336E+00   172.29
   45.00   127.00      -2.90    3.73    4.58    0.01045    65.02  LEFT      6.45183E-01   170.72    1.38462E+00   172.29
   45.00   128.00      -2.71    3.61    4.52    0.01070    64.22  LEFT      6.59678E-01   170.72    1.36548E+00   172.29
   45.00   129.00      -2.52    3.48    4.46    0.01093    63.41  LEFT      6.73952E-01   170.72    1.34593E+00   172.29
   45.00   130.00      -2.34    3.35    4.39    0.01116    62.58  LEFT      6.88003E-01   170.72    1.32599E+00   172.29
   45.00   131.00      -2.17    3.22    4.32    0.01139    61.75  LEFT      7.01826E-01   170.72    1.30566E+00   172.29
   45.00   132.00      -2.01    3.08    4.25    0.01161    60.90  LEFT      7.15419E-01   170.72    1.28495E+00   172.29
   45.00   133.00      -1.84    2.94    4.18    0.01182    60.04  LEFT      7.28777E-01   170.72    1.26387E+00   172.29
   45.00   134.00      -1.69    2.79    4.11    0.01202    59.16  LEFT      7.41897E-01   170.72    1.24242E+00   172.29
   45.00   135.00      -1.54    2.64    4.04    0.01221    58.27  LEFT      7.54776E-01   170.72    1.22062E+00   172.29
   45.00   136.00      -1.40    2.48    3.97    0.01240    57.37  LEFT      7.67410E-01   170.72    1.19847E+00   172.29
   45.00   137.00      -1.26    2.31    3.89    0.01258    56.46  LEFT      7.79797E-01   170.72    1.17598E+00   172.29
   45.00   138.00      -1.12    2.14    3.82    0.01274    55.52  LEFT      7.91934E-01   170.72    1.15316E+00   172.29
   45.00   139.00      -0.99    1.97    3.74    0.01290    54.58  LEFT      8.03817E-01   170.72    1.13001E+00   172.29
   45.00   140.00      -0.87    1.78    3.67    0.01304    53.62  LEFT      8.15444E-01   170.72    1.10655E+00   172.29
   45.00   141.00      -0.75    1.59    3.59    0.01317    52.64  LEFT      8.26813E-01   170.72    1.08278E+00   172.29
   45.00   142.00      -0.63    1.40    3.51    0.01329    51.64  LEFT      8.37920E-01   170.72    1.05871E+00   172.29
   45.00   143.00      -0.52    1.20    3.43    0.01339    50.63  LEFT      8.48764E-01   170.73    1.03434E+00   172.29
   45.00   144.00      -0.41    0.99    3.35    0.01348    49.60  LEFT      8.59342E-01   170.73    1.00969E+00   172.29
   45.00   145.00      -0.31    0.77    3.27    0.01355    48.55  LEFT      8.69652E-01   170.73    9.84771E-01   172.29
   45.00   146.00      -0.21    0.55    3.19    0.01360    47.49  LEFT      8.79692E-01   170.73    9.59580E-01   172.29
   45.00   147.00      -0.11    0.31    3.11    0.01364    46.40  LEFT      8.89460E-01   170.73    9.34128E-01   172.29
   45.00   148.00      -0.02    0.07    3.03    0.01365    45.30  LEFT      8.98954E-01   170.73    9.08425E-01   172.29
   45.00   149.00       0.07   -0.18    2.95    0.01365    44.18  LEFT      9.08171E-01   170.73    8.82479E-01   172.29
   45.00   150.00       0.15   -0.44    2.87    0.01362    43.04  LEFT      9.17111E-01   170.73    8.56297E-01   172.29
   45.00   151.00       0.23   -0.72    2.79    0.01357    41.87  LEFT      9.25772E-01   170.73    8.29887E-01   172.29
   45.00   152.00       0.31   -1.00    2.72    0.01350    40.69  LEFT      9.34152E-01   170.73    8.03257E-01   172.29
   45.00   153.00       0.39   -1.29    2.64    0.01340    39.49  LEFT      9.42250E-01   170.73    7.76416E-01   172.29
   45.00   154.00       0.46   -1.60    2.56    0.01328    38.26  LEFT      9.50064E-01   170.73    7.49372E-01   172.29
   45.00   155.00       0.53   -1.92    2.48    0.01313    37.02  LEFT      9.57592E-01   170.73    7.22131E-01   172.29
   45.00   156.00       0.59   -2.26    2.41    0.01295    35.75  LEFT      9.64835E-01   170.73    6.94702E-01   172.29
   45.00   157.00       0.65   -2.61    2.33    0.01274    34.46  LEFT      9.71790E-01   170.73    6.67094E-01   172.29
   45.00   158.00       0.71   -2.98    2.26    0.01250    33.16  LEFT      9.78456E-01   170.73    6.39313E-01   172.29
   45.00   159.00       0.77   -3.37    2.19    0.01224    31.83  LEFT      9.84833E-01   170.73    6.11368E-01   172.29
   45.00   160.00       0.82   -3.78    2.12    0.01194    30.48  LEFT      9.90919E-01   170.73    5.83266E-01   172.29
   45.00   161.00       0.87   -4.21    2.05    0.01161    29.11  LEFT      9.96713E-01   170.73    5.55015E-01   172.29
   45.00   162.00       0.92   -4.67    1.98    0.01124    27.72  LEFT      1.00222E+00   170.73    5.26623E-01   172.29
   45.00   163.00       0.97   -5.15    1.92    0.01085    26.30  LEFT      1.00742E+00   170.73    4.98097E-01   172.29
   45.00   164.00       1.01   -5.66    1.86    0.01042    24.87  LEFT      1.01234E+00   170.73    4.69445E-01   172.29
   45.00   165.00       1.05   -6.21    1.80    0.00996    23.42  LEFT      1.01696E+00   170.73    4.40675E-01   172.29
   45.00   166.00       1.09   -6.80    1.74    0.00947    21.95  LEFT      1.02128E+00   170.73    4.11794E-01   172.29
   45.00   167.00       1.12   -7.44    1.69    0.00895    20.47  LEFT      1.02531E+00   170.73    3.82810E-01   172.29
   45.00   168.00       1.15   -8.12    1.64    0.00839    18.96  LEFT      1.02905E+00   170.73    3.53730E-01   172.29
   45.00   169.00       1.18   -8.87    1.59    0.00781    17.45  LEFT      1.03248E+00   170.73    3.24562E-01   172.29
   45.00   170.00       1.21   -9.69    1.55    0.00720    15.91  LEFT      1.03562E+00   170.73    2.95312E-01   172.29
   45.00   171.00       1.23  -10.60    1.51    0.00656    14.36  LEFT      1.03846E+00   170.73    2.65990E-01   172.29
   45.00   172.00       1.25  -11.62    1.47    0.00590    12.80  LEFT      1.04100E+00   170.73    2.36601E-01   172.29
   45.00   173.00       1.27  -12.77    1.44    0.00522    11.23  LEFT      1.04325E+00   170.73    2.07154E-01   172.29
   45.00   174.00       1.29  -14.10    1.41    0.00451     9.64  LEFT      1.04519E+00   170.73    1.77656E-01   172.29
   45.00   175.00       1.30  -15.68    1.39    0.00379     8.05  LEFT      1.04684E+00   170.73    1.48113E-01   172.29
   45.00   176.00       1.31  -17.62    1.37    0.00305     6.45  LEFT      1.04819E+00   170.73    1.18535E-01   172.29
   45.00   177.00       1.32  -20.12    1.35    0.00230     4.84  LEFT      1.04924E+00   170.73    8.89265E-02   172.29
   45.00   178.00       1.33  -23.64    1.34    0.00154     3.23  LEFT      1.04998E+00   170.73    5.92965E-02   172.29
   45.00   179.00       1.33  -29.66    1.33    0.00077     1.62  LEFT      1.05043E+00   170.73    2.96519E-02   172.29
   45.00   180.00       1.33 -182.06    1.33    0.00000     0.00  LINEAR    1.05058E+00   170.73    7.10889E-10   103.00
   45.00   181.00       1.33  -29.66    1.33    0.00077    -1.62  RIGHT     1.05043E+00   170.73    2.96519E-02    -7.71
   45.00   182.00       1.33  -23.64    1.34    0.00154    -3.23  RIGHT     1.04998E+00   170.73    5.92965E-02    -7.71
   45.00   183.00       1.32  -20.12    1.35    0.00230    -4.84  RIGHT     1.04924E+00   170.73    8.89265E-02    -7.71
   45.00   184.00       1.31  -17.62    1.37    0.00305    -6.45  RIGHT     1.04819E+00   170.73    1.18535E-01    -7.71
   45.00   185.00       1.30  -15.68    1.39    0.00379    -8.05  RIGHT     1.04684E+00   170.73    1.48113E-01    -7.71
   45.00   186.00       1.29  -14.10    1.41    0.00451    -9.64  RIGHT     1.04519E+00   170.73    1.77656E-01    -7.71
   45.00   187.00       1.27  -12.77    1.44    0.00522   -11.23  RIGHT     1.04325E+00   170.73    2.07154E-01    -7.71
   45.00   188.00       1.25  -11.62    1.47    0.00590   -12.80  RIGHT     1.04100E+00   170.73    2.36601E-01    -7.71
   45.00   189.00       1.23  -10.60    1.51    0.00656   -14.36  RIGHT     1.03846E+00   170.73    2.65990E-01    -7.71
   45.00   190.00       1.21   -9.69    1.55    0.00720   -15.91  RIGHT     1.03562E+00   170.73    2.95312E-01    -7.71
   45.00   191.00       1.18   -8.87    1.59    0.00781   -17.45  RIGHT     1.03248E+00   170.73    3.24562E-01    -7.71
   45.00   192.00       1.15   -8.12    1.64    0.00839   -18.96  RIGHT     1.02905E+00   170.73    3.53730E-01    -7.71
   45.00   193.00       1.12   -7.44    1.69    0.00895   -20.47  RIGHT     1.02531E+00   170.73    3.82810E-01    -7.71
   45.00   194.00       1.09   -6.80    1.74    0.00947   -21.95  RIGHT     1.02128E+00   170.73    4.11794E-01    -7.71
   45.00   195.00       1.05   -6.21    1.80    0.00996   -23.42  RIGHT     1.01696E+00   170.73    4.40675E-01    -7.71
   45.00   196.00       1.01   -5.66    1.86    0.01042   -24.87  RIGHT     1.01234E+00   170.73    4.69445E-01    -7.71
   45.00   197.00       0.97   -5.15    1.92    0.01085   -26.30  RIGHT     1.00742E+00   170.73    4.98097E-01    -7.71
   45.00   198.00       0.92   -4.67    1.98    0.01124   -27.72  RIGHT     1.00222E+00   170.73    5.26623E-01    -7.71
   45.00   199.00       0.87   -4.21    2.05    0.01161   -29.11  RIGHT     9.96713E-01   170.73    5.55015E-01    -7.71
   45.00   200.00       0.82   -3.78    2.12    0.01194   -30.48  RIGHT     9.90919E-01   170.73    5.83266E-01    -7.71
   45.00   201.00       0.77   -3.37    2.19    0.01224   -31.83  RIGHT     9.84833E-01   170.73    6.11368E-01    -7.71
   45.00   202.00       0.71   -2.98    2.26    0.01250   -33.16  RIGHT     9.78456E-01   170.73    6.39313E-01    -7.71
   45.00   203.00       0.65   -2.61    2.33    0.01274   -34.46  RIGHT     9.71790E-01   170.73    6.67094E-01    -7.71
   45.00   204.00       0.59   -2.26    2.41    0.01295   -35.75  RIGHT     9.64835E-01   170.73    6.94702E-01    -7.71
   45.00   205.00       0.53   -1.92    2.48    0.01313   -37.02  RIGHT     9.57592E-01   170.73    7.22131E-01    -7.71
   45.00   206.00       0.46   -1.60    2.56    0.01328   -38.26  RIGHT     9.50064E-01   170.73    7.49372E-01    -7.71
   45.00   207.00       0.39   -1.29    2.64    0.01340   -39.49  RIGHT     9.42250E-01   170.73    7.76416E-01    -7.71
   45.00   208.00       0.31   -1.00    2.72    0.01350   -40.69  RIGHT     9.34152E-01   170.73    8.03257E-01    -7.71
   45.00   209.00       0.23   -0.72    2.79    0.01357   -41.87  RIGHT     9.25772E-01   170.73    8.29887E-01    -7.71
   45.00   210.00       0.15   -0.44    2.87    0.01362   -43.04  RIGHT     9.17111E-01   170.73    8.56297E-01    -7.71
   45.00   211.00       0.07   -0.18    2.95    0.01365   -44.18  RIGHT     9.08171E-01   170.73    8.82479E-01    -7.71
   45.00   212.00      -0.02    0.07    3.03    0.01365   -45.30  RIGHT     8.98954E-01   170.73    9.08425E-01    -7.71
   45.00   213.00      -0.11    0.31    3.11    0.01364   -46.40  RIGHT     8.89460E-01   170.73    9.34128E-01    -7.71
   45.00   214.00      -0.21    0.55    3.19    0.01360   -47.49  RIGHT     8.79692E-01   170.73    9.59580E-01    -7.71
   45.00   215.00      -0.31    0.77    3.27    0.01355   -48.55  RIGHT     8.69652E-01   170.73    9.84771E-01    -7.71
   45.00   216.00      -0.41    0.99    3.35    0.01348   -49.60  RIGHT     8.59342E-01   170.73    1.00969E+00    -7.71
   45.00   217.00      -0.52    1.20    3.43    0.01339   -50.63  RIGHT     8.48764E-01   170.73    1.03434E+00    -7.71
   45.00   218.00      -0.63    1.40    3.51    0.01329   -51.64  RIGHT     8.37920E-01   170.72    1.05871E+00    -7.71
   45.00   219.00      -0.75    1.59    3.59    0.01317   -52.64  RIGHT     8.26813E-01   170.72    1.08278E+00    -7.71
   45.00   220.00      -0.87    1.78    3.67    0.01304   -53.62  RIGHT     8.15444E-01   170.72    1.10655E+00    -7.71
   45.00   221.00      -0.99    1.97    3.74    0.01290   -54.58  RIGHT     8.03817E-01   170.72    1.13001E+00    -7.71
   45.00   222.00      -1.12    2.14    3.82    0.01274   -55.52  RIGHT     7.91934E-01   170.72    1.15316E+00    -7.71
   45.00   223.00      -1.26    2.31    3.89    0.01258   -56.46  RIGHT     7.79797E-01   170.72    1.17598E+00    -7.71
   45.00   224.00      -1.40    2.48    3.97    0.01240   -57.37  RIGHT     7.67410E-01   170.72    1.19847E+00    -7.71
   45.00   225.00      -1.54    2.64    4.04    0.01221   -58.27  RIGHT     7.54776E-01   170.72    1.22062E+00    -7.71
   45.00   226.00      -1.69    2.79    4.11    0.01202   -59.16  RIGHT     7.41897E-01   170.72    1.24242E+00    -7.71
   45.00   227.00      -1.84    2.94    4.18    0.01182   -60.04  RIGHT     7.28777E-01   170.72    1.26387E+00    -7.71
   45.00   228.00      -2.01    3.08    4.25    0.01161   -60.90  RIGHT     7.15419E-01   170.72    1.28495E+00    -7.71
   45.00   229.00      -2.17    3.22    4.32    0.01139   -61.75  RIGHT     7.01826E-01   170.72    1.30566E+00    -7.71
   45.00   230.00      -2.34    3.35    4.39    0.01116   -62.58  RIGHT     6.88003E-01   170.72    1.32599E+00    -7.71
   45.00   231.00      -2.52    3.48    4.46    0.01093   -63.41  RIGHT     6.73952E-01   170.72    1.34593E+00    -7.71
   45.00   232.00      -2.71    3.61    4.52    0.01070   -64.22  RIGHT     6.59678E-01   170.72    1.36548E+00    -7.71
   45.00   233.00      -2.90    3.73    4.58    0.01045   -65.02  RIGHT     6.45183E-01   170.72    1.38462E+00    -7.71
   45.00   234.00      -3.10    3.85    4.65    0.01021   -65.81  RIGHT     6.30473E-01   170.72    1.40336E+00    -7.71
   45.00   235.00      -3.31    3.96    4.71    0.00996   -66.59  RIGHT     6.15552E-01   170.72    1.42168E+00    -7.71
   45.00   236.00      -3.53    4.07    4.76    0.00970   -67.37  RIGHT     6.00423E-01   170.72    1.43957E+00    -7.71
   45.00   237.00      -3.75    4.17    4.82    0.00944   -68.13  RIGHT     5.85091E-01   170.72    1.45703E+00    -7.71
   45.00   238.00      -3.99    4.27    4.88    0.00918   -68.88  RIGHT     5.69560E-01   170.72    1.47406E+00    -7.71
   45.00   239.00      -4.23    4.37    4.93    0.00891   -69.62  RIGHT     5.53836E-01   170.72    1.49063E+00    -7.71
   45.00   240.00      -4.48    4.46    4.99    0.00865   -70.36  RIGHT     5.37922E-01   170.72    1.50676E+00    -7.71
   45.00   241.00      -4.75    4.55    5.04    0.00837   -71.09  RIGHT     5.21824E-01   170.72    1.52242E+00    -7.71
   45.00   242.00      -5.02    4.64    5.09    0.00810   -71.81  RIGHT     5.05546E-01   170.72    1.53762E+00    -7.71
   45.00   243.00      -5.31    4.72    5.13    0.00783   -72.52  RIGHT     4.89094E-01   170.72    1.55235E+00    -7.71
   45.00   244.00      -5.61    4.80    5.18    0.00755   -73.22  RIGHT     4.72472E-01   170.72    1.56660E+00    -7.71
   45.00   245.00      -5.92    4.88    5.23    0.00727   -73.92  RIGHT     4.55687E-01   170.72    1.58036E+00    -7.72
   45.00   246.00      -6.25    4.95    5.27    0.00699   -74.61  RIGHT     4.38743E-01   170.72    1.59364E+00    -7.72
   45.00   247.00      -6.60    5.02    5.31    0.00670   -75.30  RIGHT     4.21645E-01   170.72    1.60642E+00    -7.72
   45.00   248.00      -6.96    5.09    5.35    0.00642   -75.98  RIGHT     4.04400E-01   170.72    1.61869E+00    -7.72
   45.00   249.00      -7.34    5.15    5.39    0.00614   -76.65  RIGHT     3.87013E-01   170.72    1.63046E+00    -7.72
   45.00   250.00      -7.74    5.21    5.42    0.00585   -77.32  RIGHT     3.69490E-01   170.72    1.64172E+00    -7.72
   45.00   251.00      -8.17    5.27    5.46    0.00556   -77.98  RIGHT     3.51836E-01   170.72    1.65246E+00    -7.72
   45.00   252.00      -8.62    5.32    5.49    0.00527   -78.64  RIGHT     3.34058E-01   170.72    1.66268E+00    -7.72
   45.00   253.00      -9.10    5.37    5.52    0.00498   -79.30  RIGHT     3.16161E-01   170.72    1.67237E+00    -7.72
   45.00   254.00      -9.61    5.42    5.55    0.00469   -79.95  RIGHT     2.98153E-01   170.72    1.68153E+00    -7.72
   45.00   255.00     -10.15    5.46    5.58    0.00440   -80.60  RIGHT     2.80038E-01   170.72    1.69016E+00    -7.72
   45.00   256.00     -10.74    5.50    5.61    0.00411   -81.24  RIGHT     2.61823E-01   170.72    1.69825E+00    -7.72
   45.00   257.00     -11.37    5.54    5.63    0.00382   -81.88  RIGHT     2.43515E-01   170.72    1.70579E+00    -7.72
   45.00   258.00     -12.05    5.58    5.65    0.00353   -82.51  RIGHT     2.25120E-01   170.72    1.71279E+00    -7.72
   45.00   259.00     -12.79    5.61    5.67    0.00323   -83.15  RIGHT     2.06645E-01   170.72    1.71924E+00    -7.72
   45.00   260.00     -13.61    5.64    5.69    0.00294   -83.78  RIGHT     1.88096E-01   170.72    1.72513E+00    -7.72
   45.00   261.00     -14.51    5.67    5.71    0.00265   -84.41  RIGHT     1.69479E-01   170.72    1.73048E+00    -7.72
   45.00   262.00     -15.53    5.69    5.72    0.00235   -85.04  RIGHT     1.50801E-01   170.72    1.73526E+00    -7.72
   45.00   263.00     -16.68    5.71    5.74    0.00206   -85.66  RIGHT     1.32069E-01   170.72    1.73949E+00    -7.72
   45.00   264.00     -18.01    5.73    5.75    0.00177   -86.28  RIGHT     1.13290E-01   170.72    1.74315E+00    -7.72
   45.00   265.00     -19.59    5.75    5.76    0.00147   -86.90  RIGHT     9.44701E-02   170.72    1.74625E+00    -7.72
   45.00   266.00     -21.52    5.76    5.77    0.00118   -87.53  RIGHT     7.56165E-02   170.72    1.74878E+00    -7.72
   45.00   267.00     -24.02    5.77    5.77    0.00088   -88.14  RIGHT     5.67358E-02   170.72    1.75075E+00    -7.72
   45.00   268.00     -27.54    5.77    5.78    0.00059   -88.76  RIGHT     3.78350E-02   170.72    1.75215E+00    -7.72
   45.00   269.00     -33.56    5.78    5.78    0.00029   -89.38  RIGHT     1.89208E-02   170.72    1.75299E+00    -7.72
   45.00   270.00    -143.92    5.78    5.78    0.00000   -90.00  LINEAR    5.73818E-08   144.11    1.75326E+00    -7.72
   45.00   271.00     -33.56    5.78    5.78    0.00029    89.38  LEFT      1.89203E-02    -9.28    1.75295E+00    -7.72
   45.00   272.00     -27.54    5.77    5.78    0.00059    88.76  LEFT      3.78334E-02    -9.28    1.75209E+00    -7.72
   45.00   273.00     -24.02    5.77    5.77    0.00088    88.14  LEFT      5.67324E-02    -9.28    1.75065E+00    -7.72
   45.00   274.00     -21.52    5.76    5.77    0.00118    87.53  LEFT      7.56105E-02    -9.28    1.74865E+00    -7.72
   45.00   275.00     -19.59    5.74    5.76    0.00147    86.90  LEFT      9.44608E-02    -9.28    1.74608E+00    -7.72
   45.00   276.00     -18.01    5.73    5.75    0.00177    86.28  LEFT      1.13277E-01    -9.28    1.74294E+00    -7.72
   45.00   277.00     -16.68    5.71    5.74    0.00206    85.66  LEFT      1.32051E-01    -9.28    1.73925E+00    -7.72
   45.00   278.00     -15.53    5.69    5.72    0.00235    85.04  LEFT      1.50777E-01    -9.28    1.73499E+00    -7.72
   45.00   279.00     -14.52    5.67    5.71    0.00265    84.41  LEFT      1.69449E-01    -9.28    1.73017E+00    -7.72
   45.00   280.00     -13.61    5.64    5.69    0.00294    83.78  LEFT      1.88059E-01    -9.28    1.72480E+00    -7.72
   45.00   281.00     -12.79    5.61    5.67    0.00323    83.15  LEFT      2.06601E-01    -9.28    1.71887E+00    -7.72
   45.00   282.00     -12.05    5.58    5.65    0.00353    82.51  LEFT      2.25068E-01    -9.28    1.71239E+00    -7.72
   45.00   283.00     -11.37    5.54    5.63    0.00382    81.88  LEFT      2.43454E-01    -9.28    1.70536E+00    -7.72
   45.00   284.00     -10.74    5.50    5.60    0.00411    81.24  LEFT      2.61752E-01    -9.28    1.69779E+00    -7.72
   45.00   285.00     -10.15    5.46    5.58    0.00440    80.60  LEFT      2.79957E-01    -9.28    1.68967E+00    -7.72
   45.00   286.00      -9.61    5.41    5.55    0.00469    79.95  LEFT      2.98061E-01    -9.28    1.68101E+00    -7.72
   45.00   287.00      -9.10    5.37    5.52    0.00498    79.30  LEFT      3.16058E-01    -9.28    1.67183E+00    -7.72
   45.00   288.00      -8.62    5.32    5.49    0.00527    78.64  LEFT      3.33942E-01    -9.28    1.66211E+00    -7.72
   45.00   289.00      -8.17    5.26    5.46    0.00556    77.98  LEFT      3.51707E-01    -9.28    1.65186E+00    -7.72
   45.00   290.00      -7.75    5.21    5.42    0.00585    77.32  LEFT      3.69348E-01    -9.28    1.64109E+00    -7.72
   45.00   291.00      -7.35    5.15    5.38    0.00614    76.65  LEFT      3.86857E-01    -9.28    1.62981E+00    -7.72
   45.00   292.00      -6.96    5.08    5.35    0.00642    75.98  LEFT      4.04230E-01    -9.28    1.61801E+00    -7.72
   45.00   293.00      -6.60    5.02    5.31    0.00670    75.30  LEFT      4.21460E-01    -9.28    1.60571E+00    -7.72
   45.00   294.00      -6.26    4.95    5.26    0.00699    74.61  LEFT      4.38542E-01    -9.28    1.59291E+00    -7.72
   45.00   295.00      -5.93    4.87    5.22    0.00727    73.92  LEFT      4.55471E-01    -9.28    1.57962E+00    -7.72
   45.00   296.00      -5.61    4.80    5.18    0.00755    73.22  LEFT      4.72240E-01    -9.28    1.56583E+00    -7.72
   45.00   297.00      -5.31    4.72    5.13    0.00783    72.52  LEFT      4.88845E-01    -9.28    1.55156E+00    -7.72
   45.00   298.00      -5.03    4.64    5.08    0.00810    71.81  LEFT      5.05280E-01    -9.28    1.53681E+00    -7.72
   45.00   299.00      -4.75    4.55    5.03    0.00837    71.09  LEFT      5.21540E-01    -9.28    1.52159E+00    -7.72
   45.00   300.00      -4.49    4.46    4.98    0.00865    70.36  LEFT      5.37620E-01    -9.28    1.50591E+00    -7.72
   45.00   301.00      -4.23    4.37    4.93    0.00891    69.62  LEFT      5.53516E-01    -9.28    1.48977E+00    -7.72
   45.00   302.00      -3.99    4.27    4.87    0.00918    68.88  LEFT      5.69221E-01    -9.28    1.47318E+00    -7.72
   45.00   303.00      -3.76    4.17    4.82    0.00944    68.13  LEFT      5.84733E-01    -9.28    1.45614E+00    -7.72
   45.00   304.00      -3.53    4.06    4.76    0.00970    67.37  LEFT      6.00045E-01    -9.28    1.43867E+00    -7.72
   45.00   305.00      -3.32    3.95    4.70    0.00996    66.59  LEFT      6.15155E-01    -9.28    1.42076E+00    -7.72
   45.00   306.00      -3.11    3.84    4.64    0.01021    65.81  LEFT      6.30057E-01    -9.28    1.40243E+00    -7.72
   45.00   307.00      -2.91    3.72    4.58    0.01045    65.02  LEFT      6.44747E-01    -9.28    1.38369E+00    -7.72
   45.00   308.00      -2.72    3.60    4.51    0.01070    64.22  LEFT      6.59221E-01    -9.28    1.36453E+00    -7.72
   45.00   309.00      -2.53    3.48    4.45    0.01093    63.41  LEFT      6.73475E-01    -9.28    1.34498E+00    -7.72
   45.00   310.00      -2.35    3.35    4.38    0.01116    62.58  LEFT      6.87505E-01    -9.28    1.32503E+00    -7.72
   45.00   311.00      -2.18    3.21    4.32    0.01139    61.75  LEFT      7.01308E-01    -9.28    1.30469E+00    -7.72
   45.00   312.00      -2.01    3.07    4.25    0.01161    60.90  LEFT      7.14880E-01    -9.28    1.28398E+00    -7.72
   45.00   313.00      -1.85    2.93    4.18    0.01182    60.04  LEFT      7.28217E-01    -9.28    1.26290E+00    -7.71
   45.00   314.00      -1.70    2.78    4.11    0.01202    59.16  LEFT      7.41316E-01    -9.28    1.24145E+00    -7.71
   45.00   315.00      -1.55    2.63    4.03    0.01221    58.27  LEFT      7.54174E-01    -9.28    1.21965E+00    -7.71
   45.00   316.00      -1.40    2.47    3.96    0.01240    57.37  LEFT      7.66787E-01    -9.28    1.19750E+00    -7.71
   45.00   317.00      -1.26    2.30    3.89    0.01258    56.46  LEFT      7.79154E-01    -9.28    1.17501E+00    -7.71
   45.00   318.00      -1.13    2.13    3.81    0.01274    55.52  LEFT      7.91269E-01    -9.28    1.15219E+00    -7.71
   45.00   319.00      -1.00    1.96    3.74    0.01290    54.58  LEFT      8.03132E-01    -9.28    1.12905E+00    -7.71
   45.00   320.00      -0.88    1.78    3.66    0.01304    53.62  LEFT      8.14739E-01    -9.28    1.10559E+00    -7.71
   45.00   321.00      -0.76    1.59    3.58    0.01317    52.64  LEFT      8.26087E-01    -9.28    1.08183E+00    -7.71
   45.00   322.00      -0.64    1.39    3.50    0.01329    51.64  LEFT      8.37174E-01    -9.28    1.05776E+00    -7.71
   45.00   323.00      -0.53    1.19    3.42    0.01339    50.63  LEFT      8.47998E-01    -9.28    1.03341E+00    -7.71
   45.00   324.00      -0.42    0.98    3.35    0.01348    49.60  LEFT      8.58556E-01    -9.28    1.00877E+00    -7.71
   45.00   325.00      -0.32    0.76    3.27    0.01355    48.55  LEFT      8.68847E-01    -9.28    9.83859E-01    -7.71
   45.00   326.00      -0.22    0.54    3.19    0.01360    47.49  LEFT      8.78867E-01    -9.28    9.58680E-01    -7.71
   45.00   327.00      -0.12    0.30    3.11    0.01364    46.40  LEFT      8.88616E-01    -9.28    9.33242E-01    -7.71
   45.00   328.00      -0.03    0.06    3.03    0.01365    45.30  LEFT      8.98091E-01    -9.28    9.07554E-01    -7.71
   45.00   329.00       0.06   -0.19    2.95    0.01365    44.18  LEFT      9.07290E-01    -9.28    8.81623E-01    -7.71
   45.00   330.00       0.14   -0.45    2.87    0.01362    43.04  LEFT      9.16212E-01    -9.28    8.55457E-01    -7.71
   45.00   331.00       0.22   -0.72    2.79    0.01357    41.87  LEFT      9.24855E-01    -9.28    8.29065E-01    -7.71
   45.00   332.00       0.30   -1.01    2.71    0.01350    40.69  LEFT      9.33218E-01    -9.28    8.02454E-01    -7.71
   45.00   333.00       0.38   -1.30    2.63    0.01340    39.49  LEFT      9.41298E-01    -9.28    7.75632E-01    -7.71
   45.00   334.00       0.45   -1.61    2.55    0.01328    38.26  LEFT      9.49096E-01    -9.28    7.48608E-01    -7.71
   45.00   335.00       0.52   -1.93    2.47    0.01313    37.02  LEFT      9.56609E-01    -9.28    7.21389E-01    -7.71
   45.00   336.00       0.58   -2.27    2.40    0.01295    35.75  LEFT      9.63835E-01    -9.28    6.93983E-01    -7.71
   45.00   337.00       0.65   -2.62    2.32    0.01274    34.46  LEFT      9.70775E-01    -9.28    6.66397E-01    -7.71
   45.00   338.00       0.71   -2.99    2.25    0.01250    33.16  LEFT      9.77427E-01    -9.28    6.38641E-01    -7.71
   45.00   339.00       0.76   -3.38    2.18    0.01224    31.83  LEFT      9.83790E-01    -9.28    6.10720E-01    -7.71
   45.00   340.00       0.81   -3.79    2.11    0.01194    30.48  LEFT      9.89862E-01    -9.28    5.82644E-01    -7.71
   45.00   341.00       0.87   -4.22    2.04    0.01161    29.11  LEFT      9.95643E-01    -9.28    5.54419E-01    -7.71
   45.00   342.00       0.91   -4.68    1.97    0.01124    27.72  LEFT      1.00113E+00    -9.28    5.26054E-01    -7.71
   45.00   343.00       0.96   -5.16    1.91    0.01085    26.30  LEFT      1.00633E+00    -9.28    4.97556E-01    -7.71
   45.00   344.00       1.00   -5.67    1.85    0.01042    24.87  LEFT      1.01123E+00    -9.28    4.68933E-01    -7.71
   45.00   345.00       1.04   -6.22    1.79    0.00996    23.42  LEFT      1.01584E+00    -9.28    4.40192E-01    -7.71
   45.00   346.00       1.08   -6.81    1.73    0.00947    21.95  LEFT      1.02016E+00    -9.28    4.11340E-01    -7.71
   45.00   347.00       1.11   -7.45    1.68    0.00895    20.47  LEFT      1.02418E+00    -9.28    3.82386E-01    -7.71
   45.00   348.00       1.14   -8.13    1.63    0.00839    18.97  LEFT      1.02790E+00    -9.28    3.53337E-01    -7.71
   45.00   349.00       1.17   -8.88    1.58    0.00781    17.45  LEFT      1.03133E+00    -9.28    3.24200E-01    -7.71
   45.00   350.00       1.20   -9.70    1.54    0.00720    15.91  LEFT      1.03446E+00    -9.28    2.94982E-01    -7.71
   45.00   351.00       1.22  -10.61    1.50    0.00656    14.36  LEFT      1.03729E+00    -9.28    2.65691E-01    -7.71
   45.00   352.00       1.24  -11.63    1.46    0.00590    12.80  LEFT      1.03983E+00    -9.28    2.36335E-01    -7.71
   45.00   353.00       1.26  -12.78    1.43    0.00522    11.23  LEFT      1.04207E+00    -9.28    2.06920E-01    -7.71
   45.00   354.00       1.28  -14.11    1.40    0.00451     9.64  LEFT      1.04401E+00    -9.28    1.77455E-01    -7.71
   45.00   355.00       1.29  -15.69    1.38    0.00379     8.05  LEFT      1.04565E+00    -9.28    1.47946E-01    -7.71
   45.00   356.00       1.30  -17.63    1.36    0.00305     6.45  LEFT      1.04700E+00    -9.28    1.18400E-01    -7.71
   45.00   357.00       1.31  -20.13    1.34    0.00230     4.84  LEFT      1.04804E+00    -9.28    8.88255E-02    -7.71
   45.00   358.00       1.32  -23.65    1.33    0.00154     3.23  LEFT      1.04879E+00    -9.28    5.92291E-02    -7.71
   45.00   359.00       1.32  -29.67    1.32    0.00077     1.62  LEFT      1.04924E+00    -9.28    2.96182E-02    -7.71






 ***** DATA CARD NO.  9   EN   0     1   360  1000  4.50000E+01  0.00000E+00  0.00000E+00  1.00000E+00  0.00000E+00  0.00000E+00

 RUN TIME =     0.297
